api/Rede_CAI_teste_sem_trafos_Ajustada_Curr_Elem.Txt

CIRCUIT ELEMENT CURRENTS

(Currents into element from indicated bus)

Power Delivery Elements

  Bus Phase    Magnitude, A     Angle      (Real)   +j  (Imag)

ELEMENT = "Vsource.SOURCE"
3259     1            367.6 /_  155.9 =    -335.65 +j    149.91
3259     2           365.64 /_   35.9 =     296.08 +j    214.54
3259     3           366.59 /_  -83.8 =     39.568 +j   -364.44
------------
3259     0            367.6 /_  -24.1 =     335.65 +j   -149.91
3259     0           365.64 /_ -144.1 =    -296.08 +j   -214.54
3259     0           366.59 /_   96.2 =    -39.568 +j    364.44

ELEMENT = "Line.12465653_ID5630"
2645     1           338.82 /_  124.2 =    -190.26 +j    280.36
2645     2           352.13 /_    4.0 =     351.26 +j    24.777
2645     3           349.77 /_ -115.9 =    -152.95 +j   -314.55
------------
3256     1           338.82 /_  -55.8 =     190.26 +j   -280.36
3256     2           352.13 /_ -176.0 =    -351.26 +j   -24.777
3256     3           349.77 /_   64.1 =     152.95 +j    314.55

ELEMENT = "Line.12465646_ID4573"
2221     1           258.26 /_  143.2 =    -206.93 +j    154.53
2221     2            264.4 /_   22.9 =     243.52 +j       103
2221     3            264.4 /_  -97.1 =    -32.506 +j    -262.4
------------
3256     1           258.26 /_  -36.8 =     206.93 +j   -154.53
3256     2            264.4 /_ -157.1 =    -243.52 +j      -103
3256     3            264.4 /_   82.9 =     32.506 +j     262.4

ELEMENT = "Line.363434473_ID6118"
3257     1           361.21 /_  -57.1 =     196.01 +j    -303.4
3257     2           328.51 /_ -177.4 =    -328.18 +j   -14.747
3257     3           328.77 /_   62.6 =     151.53 +j    291.77
------------
927      1           361.21 /_  122.9 =    -196.01 +j     303.4
927      2           328.51 /_    2.6 =     328.18 +j    14.747
927      3           328.77 /_ -117.4 =    -151.53 +j   -291.77

ELEMENT = "Line.363434188_ID5894"
1972     1           180.05 /_  142.8 =     -143.5 +j    108.75
1972     2           171.11 /_   22.9 =     157.57 +j    66.698
1972     3            171.2 /_  -97.1 =    -21.043 +j    -169.9
------------
3257     1           180.05 /_  -37.2 =      143.5 +j   -108.75
3257     2           171.11 /_ -157.1 =    -157.57 +j   -66.698
3257     3            171.2 /_   82.9 =     21.043 +j     169.9

ELEMENT = "Line.361598269_ID4970"
13       1           171.53 /_  121.7 =    -90.183 +j    145.91
13       2           180.78 /_    1.7 =      180.7 +j    5.2116
13       3           177.26 /_ -118.3 =    -84.032 +j   -156.08
------------
3257     1           171.53 /_  -58.3 =     90.183 +j   -145.91
3257     2           180.78 /_ -178.3 =     -180.7 +j   -5.2116
3257     3           177.26 /_   61.7 =     84.032 +j    156.08

ELEMENT = "Line.361598276_ID4098"
3257     1           355.32 /_  -60.2 =      176.6 +j   -308.33
3257     2           370.24 /_  179.8 =    -370.24 +j    1.1764
3257     3            364.7 /_   59.8 =     183.25 +j    315.32
------------
436      1           355.32 /_  119.8 =     -176.6 +j    308.33
436      2           370.24 /_   -0.2 =     370.24 +j   -1.1764
436      3            364.7 /_ -120.2 =    -183.25 +j   -315.32

ELEMENT = "Line.363434459_ID3276"
3257     1           362.68 /_  -58.4 =     189.97 +j   -308.94
3257     2           345.24 /_ -178.2 =    -345.06 +j   -11.098
3257     3           348.34 /_   61.8 =     164.73 +j    306.93
------------
1100     1           362.68 /_  121.6 =    -189.97 +j    308.94
1100     2           345.24 /_    1.8 =     345.06 +j    11.098
1100     3           348.34 /_ -118.2 =    -164.73 +j   -306.93

ELEMENT = "Line.12465654_ID5322"
2922     1           341.31 /_  122.9 =    -185.57 +j    286.45
2922     2           344.03 /_    2.9 =     343.59 +j    17.445
2922     3           341.54 /_ -117.0 =    -155.29 +j    -304.2
------------
3258     1           341.31 /_  -57.1 =     185.57 +j   -286.45
3258     2           344.03 /_ -177.1 =    -343.59 +j   -17.445
3258     3           341.54 /_   63.0 =     155.29 +j     304.2

ELEMENT = "Line.12465633_ID5631"
2645     1           338.82 /_  -55.8 =     190.26 +j   -280.36
2645     2           352.13 /_ -176.0 =    -351.26 +j   -24.777
2645     3           349.77 /_   64.1 =     152.95 +j    314.55
------------
2648     1           338.82 /_  124.2 =    -190.26 +j    280.36
2648     2           352.13 /_    4.0 =     351.26 +j    24.777
2648     3           349.77 /_ -115.9 =    -152.95 +j   -314.55

ELEMENT = "Line.12465631_ID4574"
2221     1           258.26 /_  -36.8 =     206.93 +j   -154.53
2221     2            264.4 /_ -157.1 =    -243.52 +j      -103
2221     3            264.4 /_   82.9 =     32.506 +j     262.4
------------
2223     1           258.26 /_  143.2 =    -206.93 +j    154.53
2223     2            264.4 /_   22.9 =     243.52 +j       103
2223     3            264.4 /_  -97.1 =    -32.506 +j    -262.4

ELEMENT = "Line.12465658_ID6119"
927      1           361.21 /_  -57.1 =     196.01 +j    -303.4
927      2           328.51 /_ -177.4 =    -328.18 +j   -14.747
927      3           328.77 /_   62.6 =     151.53 +j    291.77
------------
928      1           361.21 /_  122.9 =    -196.01 +j     303.4
928      2           328.51 /_    2.6 =     328.18 +j    14.747
928      3           328.77 /_ -117.4 =    -151.53 +j   -291.77

ELEMENT = "Line.12465648_ID5895"
1972     1           180.05 /_  -37.2 =      143.5 +j   -108.75
1972     2           171.11 /_ -157.1 =    -157.57 +j   -66.698
1972     3            171.2 /_   82.9 =     21.043 +j     169.9
------------
1973     1           180.05 /_  142.8 =     -143.5 +j    108.75
1973     2           171.11 /_   22.9 =     157.57 +j    66.698
1973     3            171.2 /_  -97.1 =    -21.043 +j    -169.9

ELEMENT = "Line.12465656_ID3277"
1100     1           362.68 /_  -58.4 =     189.97 +j   -308.94
1100     2           345.24 /_ -178.2 =    -345.06 +j   -11.098
1100     3           348.34 /_   61.8 =     164.73 +j    306.93
------------
1101     1           362.68 /_  121.6 =    -189.97 +j    308.94
1101     2           345.24 /_    1.8 =     345.06 +j    11.098
1101     3           348.34 /_ -118.2 =    -164.73 +j   -306.93

ELEMENT = "Line.12465632_ID5323"
2924     1           341.31 /_  122.9 =    -185.57 +j    286.45
2924     2           344.03 /_    2.9 =     343.59 +j    17.445
2924     3           341.54 /_ -117.0 =    -155.29 +j    -304.2
------------
2922     1           341.31 /_  -57.1 =     185.57 +j   -286.45
2922     2           344.03 /_ -177.1 =    -343.59 +j   -17.445
2922     3           341.54 /_   63.0 =     155.29 +j     304.2

ELEMENT = "Line.12465599_ID5632"
2647     1           338.82 /_  124.2 =    -190.26 +j    280.36
2647     2           352.13 /_    4.0 =     351.26 +j    24.777
2647     3           349.77 /_ -115.9 =    -152.95 +j   -314.55
------------
2648     1           338.82 /_  -55.8 =     190.26 +j   -280.36
2648     2           352.13 /_ -176.0 =    -351.26 +j   -24.777
2648     3           349.77 /_   64.1 =     152.95 +j    314.55

ELEMENT = "Line.12465600_ID4575"
2222     1           258.26 /_  143.2 =    -206.93 +j    154.53
2222     2            264.4 /_   22.9 =     243.52 +j       103
2222     3            264.4 /_  -97.1 =    -32.506 +j    -262.4
------------
2223     1           258.26 /_  -36.8 =     206.93 +j   -154.53
2223     2            264.4 /_ -157.1 =    -243.52 +j      -103
2223     3            264.4 /_   82.9 =     32.506 +j     262.4

ELEMENT = "Line.12465658_ID6120"
929      1           361.21 /_  122.9 =    -196.01 +j     303.4
929      2           328.51 /_    2.6 =     328.18 +j    14.747
929      3           328.77 /_ -117.4 =    -151.53 +j   -291.77
------------
928      1           361.21 /_  -57.1 =     196.01 +j    -303.4
928      2           328.51 /_ -177.4 =    -328.18 +j   -14.747
928      3           328.77 /_   62.6 =     151.53 +j    291.77

ELEMENT = "Line.12465628_ID5896"
1973     1           180.05 /_  -37.2 =      143.5 +j   -108.75
1973     2           171.11 /_ -157.1 =    -157.57 +j   -66.698
1973     3            171.2 /_   82.9 =     21.043 +j     169.9
------------
1975     1           180.05 /_  142.8 =     -143.5 +j    108.75
1975     2           171.11 /_   22.9 =     157.57 +j    66.698
1975     3            171.2 /_  -97.1 =    -21.043 +j    -169.9

ELEMENT = "Line.363435121_ID4971"
13       1           171.53 /_  -58.3 =     90.183 +j   -145.91
13       2           180.78 /_ -178.3 =     -180.7 +j   -5.2116
13       3           177.26 /_   61.7 =     84.032 +j    156.08
------------
12       1           171.53 /_  121.7 =    -90.183 +j    145.91
12       2           180.78 /_    1.7 =      180.7 +j    5.2116
12       3           177.26 /_ -118.3 =    -84.032 +j   -156.08

ELEMENT = "Line.363435071_ID4099"
434      1           355.32 /_  119.8 =     -176.6 +j    308.33
434      2           370.24 /_   -0.2 =     370.24 +j   -1.1764
434      3            364.7 /_ -120.2 =    -183.25 +j   -315.32
------------
436      1           355.32 /_  -60.2 =      176.6 +j   -308.33
436      2           370.24 /_  179.8 =    -370.24 +j    1.1764
436      3            364.7 /_   59.8 =     183.25 +j    315.32

ELEMENT = "Line.12465630_ID3278"
1101     1           362.68 /_  -58.4 =     189.97 +j   -308.94
1101     2           345.24 /_ -178.2 =    -345.06 +j   -11.098
1101     3           348.34 /_   61.8 =     164.73 +j    306.93
------------
1103     1           362.68 /_  121.6 =    -189.97 +j    308.94
1103     2           345.24 /_    1.8 =     345.06 +j    11.098
1103     3           348.34 /_ -118.2 =    -164.73 +j   -306.93

ELEMENT = "Line.12465603_ID5324"
2923     1           341.31 /_  122.9 =    -185.57 +j    286.45
2923     2           344.03 /_    2.9 =     343.59 +j    17.445
2923     3           341.54 /_ -117.0 =    -155.29 +j    -304.2
------------
2924     1           341.31 /_  -57.1 =     185.57 +j   -286.45
2924     2           344.03 /_ -177.1 =    -343.59 +j   -17.445
2924     3           341.54 /_   63.0 =     155.29 +j     304.2

ELEMENT = "Line.12465599_ID5633"
2646     1           338.82 /_  124.2 =    -190.26 +j    280.36
2646     2           352.13 /_    4.0 =     351.26 +j    24.777
2646     3           349.77 /_ -115.9 =    -152.95 +j   -314.55
------------
2647     1           338.82 /_  -55.8 =     190.26 +j   -280.36
2647     2           352.13 /_ -176.0 =    -351.26 +j   -24.777
2647     3           349.77 /_   64.1 =     152.95 +j    314.55

ELEMENT = "Line.12465600_ID4576"
2222     1           258.26 /_  -36.8 =     206.93 +j   -154.53
2222     2            264.4 /_ -157.1 =    -243.52 +j      -103
2222     3            264.4 /_   82.9 =     32.506 +j     262.4
------------
2227     1           258.26 /_  143.2 =    -206.93 +j    154.53
2227     2            264.4 /_   22.9 =     243.52 +j       103
2227     3            264.4 /_  -97.1 =    -32.506 +j    -262.4

ELEMENT = "Line.12465629_ID6121"
929      1           361.21 /_  -57.1 =     196.01 +j    -303.4
929      2           328.51 /_ -177.4 =    -328.18 +j   -14.747
929      3           328.77 /_   62.6 =     151.53 +j    291.77
------------
931      1           361.21 /_  122.9 =    -196.01 +j     303.4
931      2           328.51 /_    2.6 =     328.18 +j    14.747
931      3           328.77 /_ -117.4 =    -151.53 +j   -291.77

ELEMENT = "Line.12465596_ID5897"
1975     1           180.05 /_  -37.2 =      143.5 +j   -108.75
1975     2           171.11 /_ -157.1 =    -157.57 +j   -66.698
1975     3            171.2 /_   82.9 =     21.043 +j     169.9
------------
1974     1           180.05 /_  142.8 =     -143.5 +j    108.75
1974     2           171.11 /_   22.9 =     157.57 +j    66.698
1974     3            171.2 /_  -97.1 =    -21.043 +j    -169.9

ELEMENT = "Line.12465602_ID3279"
1102     1           362.68 /_  121.6 =    -189.97 +j    308.94
1102     2           345.24 /_    1.8 =     345.06 +j    11.098
1102     3           348.34 /_ -118.2 =    -164.73 +j   -306.93
------------
1103     1           362.68 /_  -58.4 =     189.97 +j   -308.94
1103     2           345.24 /_ -178.2 =    -345.06 +j   -11.098
1103     3           348.34 /_   61.8 =     164.73 +j    306.93

ELEMENT = "Line.12465603_ID5325"
2923     1           341.31 /_  -57.1 =     185.57 +j   -286.45
2923     2           344.03 /_ -177.1 =    -343.59 +j   -17.445
2923     3           341.54 /_   63.0 =     155.29 +j     304.2
------------
2926     1           341.31 /_  122.9 =    -185.57 +j    286.45
2926     2           344.03 /_    2.9 =     343.59 +j    17.445
2926     3           341.54 /_ -117.0 =    -155.29 +j    -304.2

ELEMENT = "Line.12465599_ID5634"
2649     1           338.82 /_  124.2 =    -190.26 +j    280.36
2649     2           352.13 /_    4.0 =     351.26 +j    24.777
2649     3           349.77 /_ -115.9 =    -152.95 +j   -314.55
------------
2646     1           338.82 /_  -55.8 =     190.26 +j   -280.36
2646     2           352.13 /_ -176.0 =    -351.26 +j   -24.777
2646     3           349.77 /_   64.1 =     152.95 +j    314.55

ELEMENT = "Line.12465589_ID4577"
2226     1           258.26 /_  143.2 =    -206.93 +j    154.53
2226     2            264.4 /_   22.9 =     243.52 +j       103
2226     3            264.4 /_  -97.1 =    -32.506 +j    -262.4
------------
2227     1           258.26 /_  -36.8 =     206.93 +j   -154.53
2227     2            264.4 /_ -157.1 =    -243.52 +j      -103
2227     3            264.4 /_   82.9 =     32.506 +j     262.4

ELEMENT = "Line.12465598_ID6122"
930      1           361.21 /_  122.9 =    -196.01 +j     303.4
930      2           328.51 /_    2.6 =     328.18 +j    14.747
930      3           328.77 /_ -117.4 =    -151.53 +j   -291.77
------------
931      1           361.21 /_  -57.1 =     196.01 +j    -303.4
931      2           328.51 /_ -177.4 =    -328.18 +j   -14.747
931      3           328.77 /_   62.6 =     151.53 +j    291.77

ELEMENT = "Line.12465596_ID5898"
1974     1           180.05 /_  -37.2 =      143.5 +j   -108.75
1974     2           171.11 /_ -157.1 =    -157.57 +j   -66.698
1974     3            171.2 /_   82.9 =     21.043 +j     169.9
------------
1978     1           180.05 /_  142.8 =     -143.5 +j    108.75
1978     2           171.11 /_   22.9 =     157.57 +j    66.698
1978     3            171.2 /_  -97.1 =    -21.043 +j    -169.9

ELEMENT = "Line.363435153_ID4972"
12       1           171.53 /_  -58.3 =     90.183 +j   -145.91
12       2           180.78 /_ -178.3 =     -180.7 +j   -5.2116
12       3           177.26 /_   61.7 =     84.032 +j    156.08
------------
9        1           171.53 /_  121.7 =    -90.183 +j    145.91
9        2           180.78 /_    1.7 =      180.7 +j    5.2116
9        3           177.26 /_ -118.3 =    -84.032 +j   -156.08

ELEMENT = "Line.363435303_ID4100"
432      1           355.32 /_  119.8 =     -176.6 +j    308.33
432      2           370.24 /_   -0.2 =     370.24 +j   -1.1764
432      3            364.7 /_ -120.2 =    -183.25 +j   -315.32
------------
434      1           355.32 /_  -60.2 =      176.6 +j   -308.33
434      2           370.24 /_  179.8 =    -370.24 +j    1.1764
434      3            364.7 /_   59.8 =     183.25 +j    315.32

ELEMENT = "Line.12465602_ID3280"
1102     1           362.68 /_  -58.4 =     189.97 +j   -308.94
1102     2           345.24 /_ -178.2 =    -345.06 +j   -11.098
1102     3           348.34 /_   61.8 =     164.73 +j    306.93
------------
1106     1           362.68 /_  121.6 =    -189.97 +j    308.94
1106     2           345.24 /_    1.8 =     345.06 +j    11.098
1106     3           348.34 /_ -118.2 =    -164.73 +j   -306.93

ELEMENT = "Line.12465588_ID5326"
2925     1           341.31 /_  122.9 =    -185.57 +j    286.45
2925     2           344.03 /_    2.9 =     343.59 +j    17.445
2925     3           341.54 /_ -117.0 =    -155.29 +j    -304.2
------------
2926     1           341.31 /_  -57.1 =     185.57 +j   -286.45
2926     2           344.03 /_ -177.1 =    -343.59 +j   -17.445
2926     3           341.54 /_   63.0 =     155.29 +j     304.2

ELEMENT = "Line.12465584_ID5635"
2649     1           338.82 /_  -55.8 =     190.26 +j   -280.36
2649     2           352.13 /_ -176.0 =    -351.26 +j   -24.777
2649     3           349.77 /_   64.1 =     152.95 +j    314.55
------------
2835     1           338.82 /_  124.2 =    -190.26 +j    280.36
2835     2           352.13 /_    4.0 =     351.26 +j    24.777
2835     3           349.77 /_ -115.9 =    -152.95 +j   -314.55

ELEMENT = "Line.12465589_ID4578"
2225     1           258.26 /_  143.2 =    -206.93 +j    154.53
2225     2            264.4 /_   22.9 =     243.52 +j       103
2225     3            264.4 /_  -97.1 =    -32.506 +j    -262.4
------------
2226     1           258.26 /_  -36.8 =     206.93 +j   -154.53
2226     2            264.4 /_ -157.1 =    -243.52 +j      -103
2226     3            264.4 /_   82.9 =     32.506 +j     262.4

ELEMENT = "Line.12465598_ID6123"
930      1           361.21 /_  -57.1 =     196.01 +j    -303.4
930      2           328.51 /_ -177.4 =    -328.18 +j   -14.747
930      3           328.77 /_   62.6 =     151.53 +j    291.77
------------
934      1           361.21 /_  122.9 =    -196.01 +j     303.4
934      2           328.51 /_    2.6 =     328.18 +j    14.747
934      3           328.77 /_ -117.4 =    -151.53 +j   -291.77

ELEMENT = "Line.12465587_ID5899"
1977     1           180.05 /_  142.8 =     -143.5 +j    108.75
1977     2           171.11 /_   22.9 =     157.57 +j    66.698
1977     3            171.2 /_  -97.1 =    -21.043 +j    -169.9
------------
1978     1           180.05 /_  -37.2 =      143.5 +j   -108.75
1978     2           171.11 /_ -157.1 =    -157.57 +j   -66.698
1978     3            171.2 /_   82.9 =     21.043 +j     169.9

ELEMENT = "Line.12465590_ID3281"
1105     1           362.68 /_  121.6 =    -189.97 +j    308.94
1105     2           345.24 /_    1.8 =     345.06 +j    11.098
1105     3           348.34 /_ -118.2 =    -164.73 +j   -306.93
------------
1106     1           362.68 /_  -58.4 =     189.97 +j   -308.94
1106     2           345.24 /_ -178.2 =    -345.06 +j   -11.098
1106     3           348.34 /_   61.8 =     164.73 +j    306.93

ELEMENT = "Line.12465638_ID5327"
2925     1           341.31 /_  -57.1 =     185.57 +j   -286.45
2925     2           344.03 /_ -177.1 =    -343.59 +j   -17.445
2925     3           341.54 /_   63.0 =     155.29 +j     304.2
------------
3029     1           341.31 /_  122.9 =    -185.57 +j    286.45
3029     2           344.03 /_    2.9 =     343.59 +j    17.445
3029     3           341.54 /_ -117.0 =    -155.29 +j    -304.2

ELEMENT = "Line.12465589_ID4579"
2224     1           258.26 /_  143.2 =    -206.93 +j    154.53
2224     2            264.4 /_   22.9 =     243.52 +j       103
2224     3            264.4 /_  -97.1 =    -32.506 +j    -262.4
------------
2225     1           258.26 /_  -36.8 =     206.93 +j   -154.53
2225     2            264.4 /_ -157.1 =    -243.52 +j      -103
2225     3            264.4 /_   82.9 =     32.506 +j     262.4

ELEMENT = "Line.12465597_ID6124"
934      1           361.21 /_  -57.1 =     196.01 +j    -303.4
934      2           328.51 /_ -177.4 =    -328.18 +j   -14.747
934      3           328.77 /_   62.6 =     151.53 +j    291.77
------------
933      1           361.21 /_  122.9 =    -196.01 +j     303.4
933      2           328.51 /_    2.6 =     328.18 +j    14.747
933      3           328.77 /_ -117.4 =    -151.53 +j   -291.77

ELEMENT = "Line.12465587_ID5900"
1976     1           180.05 /_  142.8 =     -143.5 +j    108.75
1976     2           171.11 /_   22.9 =     157.57 +j    66.698
1976     3            171.2 /_  -97.1 =    -21.043 +j    -169.9
------------
1977     1           180.05 /_  -37.2 =      143.5 +j   -108.75
1977     2           171.11 /_ -157.1 =    -157.57 +j   -66.698
1977     3            171.2 /_   82.9 =     21.043 +j     169.9

ELEMENT = "Line.363435319_ID4973"
9        1           171.53 /_  -58.3 =     90.183 +j   -145.91
9        2           180.78 /_ -178.3 =     -180.7 +j   -5.2116
9        3           177.26 /_   61.7 =     84.032 +j    156.08
------------
7        1           171.53 /_  121.7 =    -90.183 +j    145.91
7        2           180.78 /_    1.7 =      180.7 +j    5.2116
7        3           177.26 /_ -118.3 =    -84.032 +j   -156.08

ELEMENT = "Line.363438448_ID4101"
432      1           355.32 /_  -60.2 =      176.6 +j   -308.33
432      2           370.24 /_  179.8 =    -370.24 +j    1.1764
432      3            364.7 /_   59.8 =     183.25 +j    315.32
------------
431      1           355.32 /_  119.8 =     -176.6 +j    308.33
431      2           370.24 /_   -0.2 =     370.24 +j   -1.1764
431      3            364.7 /_ -120.2 =    -183.25 +j   -315.32

ELEMENT = "Line.12465590_ID3282"
1105     1           362.68 /_  -58.4 =     189.97 +j   -308.94
1105     2           345.24 /_ -178.2 =    -345.06 +j   -11.098
1105     3           348.34 /_   61.8 =     164.73 +j    306.93
------------
1104     1           362.68 /_  121.6 =    -189.97 +j    308.94
1104     2           345.24 /_    1.8 =     345.06 +j    11.098
1104     3           348.34 /_ -118.2 =    -164.73 +j   -306.93

ELEMENT = "Line.5674994_ID5636"
2833     1           338.82 /_  124.2 =    -190.26 +j    280.36
2833     2           352.13 /_    4.0 =     351.26 +j    24.777
2833     3           349.77 /_ -115.9 =    -152.95 +j   -314.55
2833     4      2.5057E-010 /_  154.2 =  -2.2555E-010 +j 1.0914E-010
------------
2835     1           338.82 /_  -55.8 =     190.26 +j   -280.36
2835     2           352.13 /_ -176.0 =    -351.26 +j   -24.777
2835     3           349.77 /_   64.1 =     152.95 +j    314.55
2835     4      1.7102E-010 /_  -23.8 =  1.5643E-010 +j -6.9122E-011

ELEMENT = "Line.12465589_ID4580"
2228     1           258.26 /_  143.2 =    -206.93 +j    154.53
2228     2            264.4 /_   22.9 =     243.52 +j       103
2228     3            264.4 /_  -97.1 =    -32.506 +j    -262.4
------------
2224     1           258.26 /_  -36.8 =     206.93 +j   -154.53
2224     2            264.4 /_ -157.1 =    -243.52 +j      -103
2224     3            264.4 /_   82.9 =     32.506 +j     262.4

ELEMENT = "Line.12465597_ID6125"
933      1           361.21 /_  -57.1 =     196.01 +j    -303.4
933      2           328.51 /_ -177.4 =    -328.18 +j   -14.747
933      3           328.77 /_   62.6 =     151.53 +j    291.77
------------
932      1           361.21 /_  122.9 =    -196.01 +j     303.4
932      2           328.51 /_    2.6 =     328.18 +j    14.747
932      3           328.77 /_ -117.4 =    -151.53 +j   -291.77

ELEMENT = "Line.12465587_ID5901"
1976     1           180.05 /_  -37.2 =      143.5 +j   -108.75
1976     2           171.11 /_ -157.1 =    -157.57 +j   -66.698
1976     3            171.2 /_   82.9 =     21.043 +j     169.9
------------
1980     1           180.05 /_  142.8 =     -143.5 +j    108.75
1980     2           171.11 /_   22.9 =     157.57 +j    66.698
1980     3            171.2 /_  -97.1 =    -21.043 +j    -169.9

ELEMENT = "Line.12465590_ID3283"
1104     1           362.68 /_  -58.4 =     189.97 +j   -308.94
1104     2           345.24 /_ -178.2 =    -345.06 +j   -11.098
1104     3           348.34 /_   61.8 =     164.73 +j    306.93
------------
1108     1           362.68 /_  121.6 =    -189.97 +j    308.94
1108     2           345.24 /_    1.8 =     345.06 +j    11.098
1108     3           348.34 /_ -118.2 =    -164.73 +j   -306.93

ELEMENT = "Line.5675532_ID5328"
3029     1           341.31 /_  -57.1 =     185.57 +j   -286.45
3029     2           344.03 /_ -177.1 =    -343.59 +j   -17.445
3029     3           341.54 /_   63.0 =     155.29 +j     304.2
3029     4      1.4683E-010 /_  -80.6 =  2.4102E-011 +j -1.4484E-010
------------
3034     1           341.31 /_  122.9 =    -185.57 +j    286.45
3034     2           344.03 /_    2.9 =     343.59 +j    17.445
3034     3           341.54 /_ -117.0 =    -155.29 +j    -304.2
3034     4      5.2079E-011 /_ -178.9 =  -5.2069E-011 +j -1.0232E-012

ELEMENT = "Line.5675005_ID5637"
2832     1           338.82 /_  124.2 =    -190.26 +j    280.36
2832     2           352.13 /_    4.0 =     351.26 +j    24.777
2832     3           349.77 /_ -115.9 =    -152.95 +j   -314.55
------------
2833     1           338.82 /_  -55.8 =     190.26 +j   -280.36
2833     2           352.13 /_ -176.0 =    -351.26 +j   -24.777
2833     3           349.77 /_   64.1 =     152.95 +j    314.55

ELEMENT = "Line.5675006_ID5638"
2823     1      6.0391E-010 /_   68.3 =  2.2342E-010 +j 5.6106E-010
2823     2      4.1595E-010 /_  -19.3 =  3.9259E-010 +j -1.3743E-010
2823     3      4.2328E-010 /_ -159.0 =  -3.9505E-010 +j -1.5199E-010
2823     4      4.0573E-011 /_  116.3 =  -1.7963E-011 +j 3.638E-011
------------
2833     1      6.5217E-010 /_ -110.9 =  -2.3279E-010 +j -6.0921E-010
2833     2      5.1016E-010 /_  154.4 =  -4.6017E-010 +j 2.2024E-010
2833     3       4.644E-010 /_   49.1 =  3.0383E-010 +j 3.5122E-010
2833     4      1.1984E-010 /_   22.8 =  1.105E-010 +j 4.6384E-011

ELEMENT = "Line.12460924_ID4581"
2228     1           258.26 /_  -36.8 =     206.93 +j   -154.53
2228     2            264.4 /_ -157.1 =    -243.52 +j      -103
2228     3            264.4 /_   82.9 =     32.506 +j     262.4
------------
2285     1           258.26 /_  143.2 =    -206.93 +j    154.53
2285     2            264.4 /_   22.9 =     243.52 +j       103
2285     3            264.4 /_  -97.1 =    -32.506 +j    -262.4

ELEMENT = "Line.12465597_ID6126"
932      1           361.21 /_  -57.1 =     196.01 +j    -303.4
932      2           328.51 /_ -177.4 =    -328.18 +j   -14.747
932      3           328.77 /_   62.6 =     151.53 +j    291.77
------------
936      1           361.21 /_  122.9 =    -196.01 +j     303.4
936      2           328.51 /_    2.6 =     328.18 +j    14.747
936      3           328.77 /_ -117.4 =    -151.53 +j   -291.77

ELEMENT = "Line.12461017_ID5902"
1979     1           180.05 /_  142.8 =     -143.5 +j    108.75
1979     2           171.11 /_   22.9 =     157.57 +j    66.698
1979     3            171.2 /_  -97.1 =    -21.043 +j    -169.9
------------
1980     1           180.05 /_  -37.2 =      143.5 +j   -108.75
1980     2           171.11 /_ -157.1 =    -157.57 +j   -66.698
1980     3            171.2 /_   82.9 =     21.043 +j     169.9

ELEMENT = "Line.363439152_ID4974"
7        1           171.53 /_  -58.3 =     90.183 +j   -145.91
7        2           180.78 /_ -178.3 =     -180.7 +j   -5.2116
7        3           177.26 /_   61.7 =     84.032 +j    156.08
------------
5        1           171.53 /_  121.7 =    -90.183 +j    145.91
5        2           180.78 /_    1.7 =      180.7 +j    5.2116
5        3           177.26 /_ -118.3 =    -84.032 +j   -156.08

ELEMENT = "Line.363439161_ID4102"
428      1           355.32 /_  119.8 =     -176.6 +j    308.33
428      2           370.24 /_   -0.2 =     370.24 +j   -1.1764
428      3            364.7 /_ -120.2 =    -183.25 +j   -315.32
------------
431      1           355.32 /_  -60.2 =      176.6 +j   -308.33
431      2           370.24 /_  179.8 =    -370.24 +j    1.1764
431      3            364.7 /_   59.8 =     183.25 +j    315.32

ELEMENT = "Line.12461016_ID3284"
1107     1           362.68 /_  121.6 =    -189.97 +j    308.94
1107     2           345.24 /_    1.8 =     345.06 +j    11.098
1107     3           348.34 /_ -118.2 =    -164.73 +j   -306.93
------------
1108     1           362.68 /_  -58.4 =     189.97 +j   -308.94
1108     2           345.24 /_ -178.2 =    -345.06 +j   -11.098
1108     3           348.34 /_   61.8 =     164.73 +j    306.93

ELEMENT = "Line.5675530_ID5329"
3033     1      3.0972E-009 /_ -134.8 =  -2.1828E-009 +j -2.1973E-009
3033     2      2.7806E-009 /_ -112.1 =  -1.0477E-009 +j -2.5757E-009
3033     3      4.1926E-009 /_ -178.4 =  -4.191E-009 +j -1.1642E-010
------------
3034     1      2.6903E-009 /_   95.6 =  -2.6193E-010 +j 2.6776E-009
3034     2      3.5161E-009 /_  109.3 =  -1.1642E-009 +j 3.3178E-009
3034     3      1.9515E-009 /_   17.4 =  1.8626E-009 +j 5.8208E-010

ELEMENT = "Line.5675531_ID5330"
3034     1           341.31 /_  -57.1 =     185.57 +j   -286.45
3034     2           344.03 /_ -177.1 =    -343.59 +j   -17.445
3034     3           341.54 /_   63.0 =     155.29 +j     304.2
------------
3031     1           341.31 /_  122.9 =    -185.57 +j    286.45
3031     2           344.03 /_    2.9 =     343.59 +j    17.445
3031     3           341.54 /_ -117.0 =    -155.29 +j    -304.2

ELEMENT = "Line.5675005_ID5639"
2831     1           334.16 /_  124.2 =    -187.81 +j    276.39
2831     2           347.47 /_    4.1 =     346.59 +j    24.638
2831     3            345.1 /_ -115.9 =    -150.74 +j   -310.44
------------
2832     1           334.16 /_  -55.8 =     187.81 +j   -276.39
2832     2           347.47 /_ -175.9 =    -346.59 +j   -24.638
2832     3            345.1 /_   64.1 =     150.74 +j    310.44

ELEMENT = "Line.12461015_ID6127"
935      1           361.21 /_  122.9 =    -196.01 +j     303.4
935      2           328.51 /_    2.6 =     328.18 +j    14.747
935      3           328.77 /_ -117.4 =    -151.53 +j   -291.77
------------
936      1           361.21 /_  -57.1 =     196.01 +j    -303.4
936      2           328.51 /_ -177.4 =    -328.18 +j   -14.747
936      3           328.77 /_   62.6 =     151.53 +j    291.77

ELEMENT = "Line.12461018_ID5903"
1979     1           180.05 /_  -37.2 =      143.5 +j   -108.75
1979     2           171.11 /_ -157.1 =    -157.57 +j   -66.698
1979     3            171.2 /_   82.9 =     21.043 +j     169.9
------------
1981     1           180.05 /_  142.8 =     -143.5 +j    108.75
1981     2           171.11 /_   22.9 =     157.57 +j    66.698
1981     3            171.2 /_  -97.1 =    -21.043 +j    -169.9

ELEMENT = "Line.363443284_ID4975"
...