api/Rede_CAI_teste_sem_trafos_Ajustada_Curr_Seq.Txt

SYMMETRICAL COMPONENT CURRENTS BY CIRCUIT ELEMENT (first 3 phases)

Element                          Term      I1         I2         %I2/I1    I0         %I0/I1   %Normal %Emergency

"VSOURCE.SOURCE" ...............   1      366.61       1.1358     0.31  2.8796E-012     0.00      0.00     0.00
   -                               2      366.61       1.1358     0.31  2.8796E-012     0.00      0.00     0.00
"LINE.12465653_ID5630" .........   1      346.91       4.0838     1.18      4.1305     1.19     70.43    58.69
   -                               2      346.91       4.0838     1.18      4.1305     1.19      0.00     0.00
"LINE.12465646_ID4573" .........   1      262.36       2.0866     0.80      2.1182     0.81     52.88    44.07
   -                               2      262.36       2.0866     0.80      2.1182     0.81      0.00     0.00
"LINE.363434473_ID6118" ........   1      339.49       10.841     3.19      10.908     3.21     80.27    60.20
   -                               2      339.49       10.841     3.19      10.908     3.21      0.00     0.00
"LINE.363434188_ID5894" ........   1      174.12       2.9659     1.70       2.968     1.70     36.01    30.01
   -                               2      174.12       2.9659     1.70       2.968     1.70      0.00     0.00
"LINE.361598269_ID4970" ........   1      176.52       2.6699     1.51      2.7212     1.54     36.16    30.13
   -                               2      176.52       2.6699     1.51      2.7212     1.54      0.00     0.00
"LINE.361598276_ID4098" ........   1      363.42       4.3027     1.18      4.4051     1.21     74.05    61.71
   -                               2      363.42       4.3027     1.18      4.4051     1.21      0.00     0.00
"LINE.363434459_ID3276" ........   1      352.08       5.3572     1.52      5.4256     1.54     72.54    60.45
   -                               2      352.08       5.3572     1.52      5.4256     1.54      0.00     0.00
"LINE.12465654_ID5322" .........   1      342.29      0.83314     0.24     0.91479     0.27     68.81    57.34
   -                               2      342.29      0.83314     0.24     0.91479     0.27      0.00     0.00
"LINE.12465633_ID5631" .........   1      346.91       4.0838     1.18      4.1305     1.19     70.43    58.69
   -                               2      346.91       4.0838     1.18      4.1305     1.19      0.00     0.00
"LINE.12465631_ID4574" .........   1      262.36       2.0866     0.80      2.1182     0.81     52.88    44.07
   -                               2      262.36       2.0866     0.80      2.1182     0.81      0.00     0.00
"LINE.12465658_ID6119" .........   1      339.49       10.841     3.19      10.908     3.21     72.24    60.20
   -                               2      339.49       10.841     3.19      10.908     3.21      0.00     0.00
"LINE.12465648_ID5895" .........   1      174.12       2.9659     1.70       2.968     1.70     36.01    30.01
   -                               2      174.12       2.9659     1.70       2.968     1.70      0.00     0.00
"LINE.12465656_ID3277" .........   1      352.08       5.3572     1.52      5.4256     1.54     72.54    60.45
   -                               2      352.08       5.3572     1.52      5.4256     1.54      0.00     0.00
"LINE.12465632_ID5323" .........   1      342.29      0.83314     0.24     0.91479     0.27     68.81    57.34
   -                               2      342.29      0.83314     0.24     0.91479     0.27      0.00     0.00
"LINE.12465599_ID5632" .........   1      346.91       4.0838     1.18      4.1305     1.19     70.43    58.69
   -                               2      346.91       4.0838     1.18      4.1305     1.19      0.00     0.00
"LINE.12465600_ID4575" .........   1      262.36       2.0866     0.80      2.1182     0.81     52.88    44.07
   -                               2      262.36       2.0866     0.80      2.1182     0.81      0.00     0.00
"LINE.12465658_ID6120" .........   1      339.49       10.841     3.19      10.908     3.21     72.24    60.20
   -                               2      339.49       10.841     3.19      10.908     3.21      0.00     0.00
"LINE.12465628_ID5896" .........   1      174.12       2.9659     1.70       2.968     1.70     36.01    30.01
   -                               2      174.12       2.9659     1.70       2.968     1.70      0.00     0.00
"LINE.363435121_ID4971" ........   1      176.52       2.6699     1.51      2.7212     1.54     36.16    30.13
   -                               2      176.52       2.6699     1.51      2.7212     1.54      0.00     0.00
"LINE.363435071_ID4099" ........   1      363.42       4.3027     1.18      4.4051     1.21     74.05    61.71
   -                               2      363.42       4.3027     1.18      4.4051     1.21      0.00     0.00
"LINE.12465630_ID3278" .........   1      352.08       5.3572     1.52      5.4256     1.54     72.54    60.45
   -                               2      352.08       5.3572     1.52      5.4256     1.54      0.00     0.00
"LINE.12465603_ID5324" .........   1      342.29      0.83314     0.24     0.91479     0.27     68.81    57.34
   -                               2      342.29      0.83314     0.24     0.91479     0.27      0.00     0.00
"LINE.12465599_ID5633" .........   1      346.91       4.0838     1.18      4.1305     1.19     70.43    58.69
   -                               2      346.91       4.0838     1.18      4.1305     1.19      0.00     0.00
"LINE.12465600_ID4576" .........   1      262.36       2.0866     0.80      2.1182     0.81     52.88    44.07
   -                               2      262.36       2.0866     0.80      2.1182     0.81      0.00     0.00
"LINE.12465629_ID6121" .........   1      339.49       10.841     3.19      10.908     3.21     72.24    60.20
   -                               2      339.49       10.841     3.19      10.908     3.21      0.00     0.00
"LINE.12465596_ID5897" .........   1      174.12       2.9659     1.70       2.968     1.70     36.01    30.01
   -                               2      174.12       2.9659     1.70       2.968     1.70      0.00     0.00
"LINE.12465602_ID3279" .........   1      352.08       5.3572     1.52      5.4256     1.54     72.54    60.45
   -                               2      352.08       5.3572     1.52      5.4256     1.54      0.00     0.00
"LINE.12465603_ID5325" .........   1      342.29      0.83314     0.24     0.91479     0.27     68.81    57.34
   -                               2      342.29      0.83314     0.24     0.91479     0.27      0.00     0.00
"LINE.12465599_ID5634" .........   1      346.91       4.0838     1.18      4.1305     1.19     70.43    58.69
   -                               2      346.91       4.0838     1.18      4.1305     1.19      0.00     0.00
"LINE.12465589_ID4577" .........   1      262.36       2.0866     0.80      2.1182     0.81     52.88    44.07
   -                               2      262.36       2.0866     0.80      2.1182     0.81      0.00     0.00
"LINE.12465598_ID6122" .........   1      339.49       10.841     3.19      10.908     3.21     72.24    60.20
   -                               2      339.49       10.841     3.19      10.908     3.21      0.00     0.00
"LINE.12465596_ID5898" .........   1      174.12       2.9659     1.70       2.968     1.70     36.01    30.01
   -                               2      174.12       2.9659     1.70       2.968     1.70      0.00     0.00
"LINE.363435153_ID4972" ........   1      176.52       2.6699     1.51      2.7212     1.54     36.16    30.13
   -                               2      176.52       2.6699     1.51      2.7212     1.54      0.00     0.00
"LINE.363435303_ID4100" ........   1      363.42       4.3027     1.18      4.4051     1.21     74.05    61.71
   -                               2      363.42       4.3027     1.18      4.4051     1.21      0.00     0.00
"LINE.12465602_ID3280" .........   1      352.08       5.3572     1.52      5.4256     1.54     72.54    60.45
   -                               2      352.08       5.3572     1.52      5.4256     1.54      0.00     0.00
"LINE.12465588_ID5326" .........   1      342.29      0.83314     0.24     0.91479     0.27     68.81    57.34
   -                               2      342.29      0.83314     0.24     0.91479     0.27      0.00     0.00
"LINE.12465584_ID5635" .........   1      346.91       4.0838     1.18      4.1305     1.19     70.43    58.69
   -                               2      346.91       4.0838     1.18      4.1305     1.19      0.00     0.00
"LINE.12465589_ID4578" .........   1      262.36       2.0866     0.80      2.1182     0.81     52.88    44.07
   -                               2      262.36       2.0866     0.80      2.1182     0.81      0.00     0.00
"LINE.12465598_ID6123" .........   1      339.49       10.841     3.19      10.908     3.21     72.24    60.20
   -                               2      339.49       10.841     3.19      10.908     3.21      0.00     0.00
"LINE.12465587_ID5899" .........   1      174.12       2.9659     1.70       2.968     1.70     36.01    30.01
   -                               2      174.12       2.9659     1.70       2.968     1.70      0.00     0.00
"LINE.12465590_ID3281" .........   1      352.08       5.3572     1.52      5.4256     1.54     72.54    60.45
   -                               2      352.08       5.3572     1.52      5.4256     1.54      0.00     0.00
"LINE.12465638_ID5327" .........   1      342.29      0.83314     0.24     0.91479     0.27     68.81    57.34
   -                               2      342.29      0.83314     0.24     0.91479     0.27      0.00     0.00
"LINE.12465589_ID4579" .........   1      262.36       2.0866     0.80      2.1182     0.81     52.88    44.07
   -                               2      262.36       2.0866     0.80      2.1182     0.81      0.00     0.00
"LINE.12465597_ID6124" .........   1      339.49       10.841     3.19      10.908     3.21     72.24    60.20
   -                               2      339.49       10.841     3.19      10.908     3.21      0.00     0.00
"LINE.12465587_ID5900" .........   1      174.12       2.9659     1.70       2.968     1.70     36.01    30.01
   -                               2      174.12       2.9659     1.70       2.968     1.70      0.00     0.00
"LINE.363435319_ID4973" ........   1      176.52       2.6699     1.51      2.7212     1.54     36.16    30.13
   -                               2      176.52       2.6699     1.51      2.7212     1.54      0.00     0.00
"LINE.363438448_ID4101" ........   1      363.42       4.3027     1.18      4.4051     1.21     74.05    61.71
   -                               2      363.42       4.3027     1.18      4.4051     1.21      0.00     0.00
"LINE.12465590_ID3282" .........   1      352.08       5.3572     1.52      5.4256     1.54     72.54    60.45
   -                               2      352.08       5.3572     1.52      5.4256     1.54      0.00     0.00
"LINE.5674994_ID5636" ..........   1      346.91       4.0838     1.18      4.1305     1.19     96.74    58.69
   -                               2      346.91       4.0838     1.18      4.1305     1.19      0.00     0.00
"LINE.12465589_ID4580" .........   1      262.36       2.0866     0.80      2.1182     0.81     52.88    44.07
   -                               2      262.36       2.0866     0.80      2.1182     0.81      0.00     0.00
"LINE.12465597_ID6125" .........   1      339.49       10.841     3.19      10.908     3.21     72.24    60.20
   -                               2      339.49       10.841     3.19      10.908     3.21      0.00     0.00
"LINE.12465587_ID5901" .........   1      174.12       2.9659     1.70       2.968     1.70     36.01    30.01
   -                               2      174.12       2.9659     1.70       2.968     1.70      0.00     0.00
"LINE.12465590_ID3283" .........   1      352.08       5.3572     1.52      5.4256     1.54     72.54    60.45
   -                               2      352.08       5.3572     1.52      5.4256     1.54      0.00     0.00
"LINE.5675532_ID5328" ..........   1      342.29      0.83314     0.24     0.91479     0.27     94.51    57.34
   -                               2      342.29      0.83314     0.24     0.91479     0.27      0.00     0.00
"LINE.5675005_ID5637" ..........   1      346.91       4.0838     1.18      4.1305     1.19     82.27    58.69
   -                               2      346.91       4.0838     1.18      4.1305     1.19      0.00     0.00
"LINE.5675006_ID5638" ..........   1   4.68E-010   7.9478E-011    16.98  1.1672E-010    24.94      0.00     0.00
   -                               2  5.1904E-010   1.1845E-010    22.82  1.3032E-010    25.11      0.00     0.00
"LINE.12460924_ID4581" .........   1      262.36       2.0866     0.80      2.1182     0.81     52.88    44.07
   -                               2      262.36       2.0866     0.80      2.1182     0.81      0.00     0.00
"LINE.12465597_ID6126" .........   1      339.49       10.841     3.19      10.908     3.21     72.24    60.20
   -                               2      339.49       10.841     3.19      10.908     3.21      0.00     0.00
"LINE.12461017_ID5902" .........   1      174.12       2.9659     1.70       2.968     1.70     36.01    30.01
   -                               2      174.12       2.9659     1.70       2.968     1.70      0.00     0.00
"LINE.363439152_ID4974" ........   1      176.52       2.6699     1.51      2.7212     1.54     36.16    30.13
   -                               2      176.52       2.6699     1.51      2.7212     1.54      0.00     0.00
"LINE.363439161_ID4102" ........   1      363.42       4.3027     1.18      4.4051     1.21     74.05    61.71
   -                               2      363.42       4.3027     1.18      4.4051     1.21      0.00     0.00
"LINE.12461016_ID3284" .........   1      352.08       5.3572     1.52      5.4256     1.54     72.54    60.45
   -                               2      352.08       5.3572     1.52      5.4256     1.54      0.00     0.00
"LINE.5675530_ID5329" ..........   1  1.0586E-009   1.3181E-009   124.51  2.9624E-009   279.84      0.00     0.00
   -                               2  1.177E-009   1.2608E-009   107.11  2.1973E-009   186.68      0.00     0.00
"LINE.5675531_ID5330" ..........   1      342.29      0.83314     0.24     0.91479     0.27     80.38    57.34
   -                               2      342.29      0.83314     0.24     0.91479     0.27      0.00     0.00
"LINE.5675005_ID5639" ..........   1      342.24       4.0838     1.19      4.1305     1.21     81.18    57.91
   -                               2      342.24       4.0838     1.19      4.1305     1.21      0.00     0.00
"LINE.12461015_ID6127" .........   1      339.49       10.841     3.19      10.908     3.21     72.24    60.20
   -                               2      339.49       10.841     3.19      10.908     3.21      0.00     0.00
"LINE.12461018_ID5903" .........   1      174.12       2.9659     1.70       2.968     1.70     36.01    30.01
   -                               2      174.12       2.9659     1.70       2.968     1.70      0.00     0.00
"LINE.363443284_ID4975" ........   1      176.52       2.6699     1.51      2.7212     1.54     36.16    30.13
   -                               2      176.52       2.6699     1.51      2.7212     1.54      0.00     0.00
"LINE.363443292_ID4103" ........   1      363.42       4.3027     1.18      4.4051     1.21     74.05    61.71
   -                               2      363.42       4.3027     1.18      4.4051     1.21      0.00     0.00
"LINE.12461020_ID3285" .........   1      352.08       5.3572     1.52      5.4256     1.54     72.54    60.45
   -                               2      352.08       5.3572     1.52      5.4256     1.54      0.00     0.00
"LINE.5675530_ID5331" ..........   1  2.2501E-009   1.028E-009    45.69  3.1044E-009   137.97      0.00     0.00
   -                               2  9.8088E-010   2.3026E-009   234.75  2.2386E-009   228.23      0.00     0.00
"LINE.5675828_ID5332" ..........   1   0.0048721   7.4982E-007     0.02  1.5451E-010     0.00      0.00     0.00
   -                               2   0.0048721   7.4931E-007     0.02  9.7237E-011     0.00      0.00     0.00
"LINE.5675829_ID5333" ..........   1      342.29      0.83314     0.24     0.91479     0.27     80.38    57.34
   -                               2      342.29      0.83314     0.24     0.91479     0.27      0.00     0.00
"LINE.5675005_ID5640" ..........   1      342.24       4.0838     1.19      4.1305     1.21     81.18    57.91
   -                               2      342.24       4.0838     1.19      4.1305     1.21      0.00     0.00
"LINE.5667238_ID4582" ..........   1      262.36       2.0866     0.80      2.1182     0.81     81.86    44.07
   -                               2      262.36       2.0866     0.80      2.1182     0.81      0.00     0.00
"LINE.12461019_ID6128" .........   1      339.49       10.841     3.19      10.908     3.21     72.24    60.20
   -                               2      339.49       10.841     3.19      10.908     3.21      0.00     0.00
"LINE.12460927_ID5904" .........   1      174.12       2.9659     1.70       2.968     1.70     36.01    30.01
   -                               2      174.12       2.9659     1.70       2.968     1.70      0.00     0.00
"LINE.12460929_ID3286" .........   1      352.08       5.3572     1.52      5.4256     1.54     72.54    60.45
   -                               2      352.08       5.3572     1.52      5.4256     1.54      0.00     0.00
"LINE.5675829_ID5334" ..........   1      342.29      0.83314     0.24     0.91479     0.27     80.38    57.34
   -                               2      342.29      0.83314     0.24     0.91479     0.27      0.00     0.00
"LINE.5675005_ID5641" ..........   1      342.24       4.0838     1.19      4.1305     1.21     81.18    57.91
   -                               2      342.24       4.0838     1.19      4.1305     1.21      0.00     0.00
"LINE.5667225_ID4583" ..........   1      262.21       2.0866     0.80      2.1182     0.81     81.81    44.04
   -                               2      262.21       2.0866     0.80      2.1182     0.81      0.00     0.00
"LINE.5667226_ID4584" ..........   1     0.14636   1.0553E-005     0.01  1.0557E-005     0.01      0.05     0.02
   -                               2     0.14636   1.0553E-005     0.01  1.0557E-005     0.01      0.00     0.00
"LINE.12460997_ID6129" .........   1      339.49       10.841     3.19      10.908     3.21     72.24    60.20
   -                               2      339.49       10.841     3.19      10.908     3.21      0.00     0.00
"LINE.357366308_ID4976" ........   1      176.52       2.6699     1.51      2.7212     1.54     36.16    30.13
   -                               2      176.52       2.6699     1.51      2.7212     1.54      0.00     0.00
"LINE.363439174_ID4104" ........   1      363.42       4.3027     1.18      4.4051     1.21     74.05    61.71
   -                               2      363.42       4.3027     1.18      4.4051     1.21      0.00     0.00
"LINE.5676155_ID5335" ..........   1      324.74      0.83563     0.26     0.91479     0.28     76.28    54.41
   -                               2      324.74      0.83563     0.26     0.91479     0.28      0.00     0.00
"LINE.5676156_ID5336" ..........   1      17.554    0.0027052     0.02  1.0592E-009     0.00      8.28     2.93
   -                               2      17.554    0.0027052     0.02  3.2242E-009     0.00      0.00     0.00
"LINE.5675005_ID5642" ..........   1      342.24       4.0838     1.19      4.1305     1.21     81.18    57.91
   -                               2      342.24       4.0838     1.19      4.1305     1.21      0.00     0.00
"LINE.5667225_ID4585" ..........   1      262.21       2.0866     0.80      2.1182     0.81     81.81    44.04
   -                               2      262.21       2.0866     0.80      2.1182     0.81      0.00     0.00
"LINE.5667354_ID4586" ..........   1     0.14636   1.0553E-005     0.01  1.0558E-005     0.01      0.21     0.02
   -                               2     0.14636   1.0553E-005     0.01  1.0557E-005     0.01      0.00     0.00
"LINE.5667355_ID4587" ..........   1  1.1241E-010   2.0412E-010   181.57  6.8938E-011    61.32      0.00     0.00
   -                               2  4.321E-011   1.6903E-010   391.18  4.9297E-010  1140.87      0.00     0.00
"LINE.5667268_ID5905" ..........   1      174.12       2.9659     1.70       2.968     1.70     55.74    30.01
   -                               2      174.12       2.9659     1.70       2.968     1.70      0.00     0.00
"LINE.5667300_ID3287" ..........   1      352.08       5.3572     1.52      5.4256     1.54     99.64    60.45
   -                               2      352.08       5.3572     1.52      5.4256     1.54      0.00     0.00
"LINE.5676509_ID5337" ..........   1       10.59    0.0014421     0.01   0.0014422     0.01      2.47     1.77
   -                               2       10.59    0.0014421     0.01   0.0014422     0.01      0.00     0.00
"LINE.5676510_ID5338" ..........   1       314.2      0.83693     0.27     0.91347     0.29     73.82    52.66
   -                               2       314.2      0.83693     0.27     0.91347     0.29      0.00     0.00
"LINE.5676212_ID5339" ..........   1      17.554    0.0027052     0.02  1.9043E-009     0.00     24.73     2.93
   -                               2      17.554    0.0027052     0.02  1.0798E-009     0.00      0.00     0.00
"LINE.5675005_ID5643" ..........   1      342.24       4.0838     1.19      4.1305     1.21     81.18    57.91
   -                               2      342.24       4.0838     1.19      4.1305     1.21      0.00     0.00
"LINE.5667225_ID4588" ..........   1      262.21       2.0866     0.80      2.1182     0.81     81.81    44.04
   -                               2      262.21       2.0866     0.80      2.1182     0.81      0.00     0.00
"LINE.5667664_ID6130" ..........   1      339.49       10.841     3.19      10.908     3.21     99.23    60.20
   -                               2      339.49       10.841     3.19      10.908     3.21      0.00     0.00
"LINE.5667260_ID5906" ..........   1  1.5975E-010   3.7357E-011    23.38  7.9999E-011    50.08      0.00     0.00
   -                               2  4.5841E-010   1.0767E-010    23.49  3.1474E-008  6865.81      0.00     0.00
"LINE.5667261_ID5907" ..........   1      174.12       2.9659     1.70       2.968     1.70     42.07    30.01
   -                               2      174.12       2.9659     1.70       2.968     1.70      0.00     0.00
"LINE.363039876_ID4977" ........   1      176.52       2.6699     1.51      2.7212     1.54     42.24    30.13
   -                               2      176.52       2.6699     1.51      2.7212     1.54      0.00     0.00
"LINE.363663319_ID4978" ........   1  8.9967E-009   2.9146E-009    32.40  1.3101E-008   145.62      0.00     0.00
   -                               2  9.6393E-009   2.422E-009    25.13  1.1241E-008   116.62      0.00     0.00
"LINE.359531326_ID4105" ........   1      363.42       4.3027     1.18      4.4051     1.21     86.50    61.71
   -                               2      363.42       4.3027     1.18      4.4051     1.21      0.00     0.00
"LINE.363663835_ID4106" ........   1  3.9668E-009   1.4747E-009    37.18  1.2118E-008   305.49      0.00     0.00
   -                               2  4.1709E-009   1.4979E-009    35.91  2.709E-008   649.49      0.00     0.00
"LINE.5667301_ID3288" ..........   1  2.6181E-009   8.8873E-010    33.94  5.8548E-010    22.36      0.00     0.00
   -                               2  2.5938E-009   8.7784E-010    33.84  4.1573E-010    16.03      0.00     0.00
"LINE.5667302_ID3289" ..........   1      352.08       5.3572     1.52      5.4256     1.54     84.74    60.45
   -                               2      352.08       5.3572     1.52      5.4256     1.54      0.00     0.00
"LINE.5676509_ID5340" ..........   1       10.59    0.0014421     0.01   0.0014422     0.01      2.47     1.77
   -                               2       10.59    0.0014421     0.01   0.0014422     0.01      0.00     0.00
"LINE.5676510_ID5341" ..........   1       314.2      0.83693     0.27     0.91347     0.29     73.82    52.66
   -                               2       314.2      0.83693     0.27     0.91347     0.29      0.00     0.00
"LINE.5675005_ID5644" ..........   1      342.24       4.0838     1.19      4.1305     1.21     81.18    57.91
   -                               2      342.24       4.0838     1.19      4.1305     1.21      0.00     0.00
"LINE.5666143_ID4589" ..........   1      1.1298   8.9129E-005     0.01  8.9168E-005     0.01      1.59     0.19
   -                               2      1.1298   8.9129E-005     0.01  8.9168E-005     0.01      0.00     0.00
"LINE.5667225_ID4590" ..........   1      261.11       2.0866     0.80      2.1182     0.81     81.47    43.86
   -                               2      261.11       2.0866     0.80      2.1182     0.81      0.00     0.00
"LINE.5667680_ID6131" ..........   1      339.49       10.841     3.19      10.908     3.21     99.23    60.20
   -                               2      339.49       10.841     3.19      10.908     3.21      0.00     0.00
"LINE.5667681_ID6132" ..........   1  1.0972E-010   1.935E-010   176.36  2.3001E-009  2096.30      0.00     0.00
   -                               2  1.2186E-010   9.285E-011    76.19  1.7859E-010   146.55      0.00     0.00
"LINE.5667051_ID5908" ..........   1      174.12       2.9659     1.70       2.968     1.70     42.07    30.01
   -                               2      174.12       2.9659     1.70       2.968     1.70      0.00     0.00
"LINE.363039876_ID4979" ........   1      176.52       2.6699     1.51      2.7212     1.54     42.24    30.13
   -                               2      176.52       2.6699     1.51      2.7212     1.54      0.00     0.00
"LINE.363663319_ID4980" ........   1  2.4023E-009   3.5868E-009   149.31  1.4616E-008   608.41      0.00     0.00
   -                               2  2.1647E-009   1.0866E-009    50.19  1.162E-008   536.79      0.00     0.00
"LINE.359530394_ID4107" ........   1      363.42       4.3027     1.18      4.4051     1.21     86.50    61.71
   -                               2      363.42       4.3027     1.18      4.4051     1.21      0.00     0.00
"LINE.363663835_ID4108" ........   1  3.6943E-009   1.0236E-009    27.71  1.2264E-008   331.97      0.00     0.00
   -                               2  3.386E-009   1.5626E-009    46.15  2.3129E-009    68.31      0.00     0.00
"LINE.5667301_ID3290" ..........   1  7.1922E-010   1.2492E-009   173.69  1.3381E-009   186.05      0.00     0.00
   -                               2  8.7356E-010   1.8997E-009   217.46  2.1927E-009   251.01      0.00     0.00
"LINE.5667203_ID3291" ..........   1     0.60286    0.0003918     0.06  0.00039187     0.07      0.85     0.10
   -                               2     0.60286    0.0003918     0.06  0.00039188     0.07      0.00     0.00
"LINE.5667302_ID3292" ..........   1      351.48       5.3571     1.52      5.4256     1.54     84.60    60.35
   -                               2      351.48       5.3571     1.52      5.4256     1.54      0.00     0.00
"LINE.5681229_ID5342" ..........   1       10.59    0.0014421     0.01   0.0014422     0.01      2.47     1.77
   -                               2       10.59    0.0014421     0.01   0.0014422     0.01      0.00     0.00
"LINE.5675005_ID5645" ..........   1      342.24       4.0838     1.19      4.1305     1.21     81.18    57.91
   -                               2      342.24       4.0838     1.19      4.1305     1.21      0.00     0.00
"LINE.5667225_ID4591" ..........   1      261.11       2.0866     0.80      2.1182     0.81     81.47    43.86
   -                               2      261.11       2.0866     0.80      2.1182     0.81      0.00     0.00
"LINE.5667680_ID6133" ..........   1      337.95       10.841     3.21      10.908     3.23     98.81    59.95
   -                               2      337.95       10.841     3.21      10.908     3.23      0.00     0.00
"LINE.5667698_ID6134" ..........   1      1.5404   0.00076835     0.05  6.0851E-010     0.00      2.17     0.26
   -                               2      1.5404   0.00076835     0.05  4.9803E-010     0.00      0.00     0.00
"LINE.5666936_ID5909" ..........   1      4.8971    0.0030683     0.06   0.0030694     0.06      6.90     0.82
   -                               2      4.8971    0.0030683     0.06   0.0030694     0.06      0.00     0.00
"LINE.5667051_ID5910" ..........   1      169.25       2.9658     1.75      2.9685     1.75     40.93    29.20
   -                               2      169.25       2.9658     1.75      2.9685     1.75      0.00     0.00
"LINE.363039876_ID4981" ........   1      176.52       2.6699     1.51      2.7212     1.54     42.24    30.13
   -                               2      176.52       2.6699     1.51      2.7212     1.54      0.00     0.00
"LINE.363663319_ID4982" ........   1  4.7268E-009   2.7513E-009    58.21  4.1599E-009    88.01      0.00     0.00
   -                               2  4.7183E-009   2.2142E-009    46.93  7.018E-009   148.74      0.00     0.00
"LINE.102369750_ID4109" ........   1      359.73       4.3036     1.20      4.4042     1.22     85.64    61.09
   -                               2      359.73       4.3036     1.20      4.4042     1.22      0.00     0.00
"LINE.363663835_ID4110" ........   1  1.1384E-009   5.425E-010    47.66  1.8626E-009   163.63      0.00     0.00
...