api/Rede_CAI_teste_sem_trafos_Ajustada_Power_elem_kVA.txt

CIRCUIT ELEMENT POWER FLOW

(Power Flow into element from indicated Bus)

Power Delivery Elements

  Bus Phase     kW     +j   kvar         kVA         PF

ELEMENT = "Vsource.SOURCE"
3259     1    -16771.8 +j  -5975.2    17804.4       0.9420
3259     2    -16684.2 +j  -5954.7    17715.0       0.9418
3259     3    -16761.7 +j  -5885.4    17764.9       0.9435
   TERMINAL TOTAL-50217.7 +j -17815.3    53284.2       0.9425
3259     0         0.0 +j      0.0        0.0       1.0000
3259     0         0.0 +j      0.0        0.0       1.0000
3259     0         0.0 +j      0.0        0.0       1.0000
   TERMINAL TOTAL     0.0 +j      0.0        0.0       1.0000

ELEMENT = "Line.12465653_ID5630"
2645     1     -2381.7 +j   -881.1     2539.5       0.9379
2645     2     -2472.2 +j   -920.4     2637.9       0.9372
2645     3     -2457.4 +j   -913.4     2621.7       0.9373
   TERMINAL TOTAL -7311.3 +j  -2714.9     7799.1       0.9375
3256     1      2382.4 +j    882.4     2540.6       0.9377
3256     2      2472.9 +j    921.9     2639.1       0.9370
3256     3      2458.1 +j    914.9     2622.9       0.9372
   TERMINAL TOTAL  7313.4 +j   2719.1     7802.5       0.9373

ELEMENT = "Line.12465646_ID4573"
2221     1     -1935.7 +j    -41.3     1936.1       0.9998
2221     2     -1980.5 +j    -53.1     1981.2       0.9996
2221     3     -1981.6 +j    -52.9     1982.3       0.9996
   TERMINAL TOTAL -5897.8 +j   -147.3     5899.6       0.9997
3256     1      1936.1 +j     42.0     1936.5       0.9998
3256     2      1980.9 +j     53.9     1981.6       0.9996
3256     3      1982.0 +j     53.7     1982.7       0.9996
   TERMINAL TOTAL  5899.0 +j    149.6     5900.9       0.9997

ELEMENT = "Line.363434473_ID6118"
3257     1      2512.1 +j    926.0     2677.3       0.9383
3257     2      2279.1 +j    857.3     2434.9       0.9360
3257     3      2281.8 +j    859.5     2438.3       0.9358
   TERMINAL TOTAL  7073.0 +j   2642.8     7550.6       0.9367
927      1     -2511.9 +j   -925.8     2677.1       0.9383
927      2     -2278.9 +j   -857.1     2434.8       0.9360
927      3     -2281.7 +j   -859.4     2438.2       0.9358
   TERMINAL TOTAL -7072.5 +j  -2642.2     7550.0       0.9368

ELEMENT = "Line.363434188_ID5894"
1972     1     -1334.5 +j     -5.9     1334.5       1.0000
1972     2     -1268.2 +j     -5.4     1268.2       1.0000
1972     3     -1269.6 +j     -5.6     1269.7       1.0000
   TERMINAL TOTAL -3872.3 +j    -16.9     3872.3       1.0000
3257     1      1334.5 +j      6.1     1334.6       1.0000
3257     2      1268.3 +j      5.5     1268.3       1.0000
3257     3      1269.7 +j      5.8     1269.7       1.0000
   TERMINAL TOTAL  3872.5 +j     17.3     3872.6       1.0000

ELEMENT = "Line.361598269_ID4970"
13       1     -1183.8 +j   -463.2     1271.2       0.9312
13       2     -1246.3 +j   -491.6     1339.7       0.9303
13       3     -1223.1 +j   -481.4     1314.5       0.9305
   TERMINAL TOTAL -3653.2 +j  -1436.2     3925.4       0.9307
3257     1      1183.9 +j    463.5     1271.4       0.9312
3257     2      1246.4 +j    491.8     1340.0       0.9302
3257     3      1223.2 +j    481.7     1314.7       0.9305
   TERMINAL TOTAL  3653.6 +j   1437.0     3926.0       0.9306

ELEMENT = "Line.361598276_ID4098"
3257     1      2419.0 +j   1041.5     2633.7       0.9185
3257     2      2519.2 +j   1088.5     2744.3       0.9180
3257     3      2483.2 +j   1072.5     2704.9       0.9180
   TERMINAL TOTAL  7421.3 +j   3202.5     8082.8       0.9182
436      1     -2418.5 +j  -1040.5     2632.8       0.9186
436      2     -2518.6 +j  -1087.3     2743.3       0.9181
436      3     -2482.6 +j  -1071.3     2703.9       0.9182
   TERMINAL TOTAL -7419.6 +j  -3199.1     8079.9       0.9183

ELEMENT = "Line.363434459_ID3276"
3257     1      2500.9 +j    985.7     2688.2       0.9303
3257     2      2383.4 +j    931.4     2558.9       0.9314
3257     3      2405.1 +j    943.5     2583.5       0.9309
   TERMINAL TOTAL  7289.5 +j   2860.6     7830.7       0.9309
1100     1     -2500.6 +j   -985.0     2687.6       0.9304
1100     2     -2383.1 +j   -930.8     2558.4       0.9315
1100     3     -2404.8 +j   -942.9     2583.0       0.9310
   TERMINAL TOTAL -7288.5 +j  -2858.7     7829.0       0.9310

ELEMENT = "Line.12465654_ID5322"
2922     1     -2523.0 +j  -1008.4     2717.0       0.9286
2922     2     -2540.2 +j  -1018.0     2736.6       0.9282
2922     3     -2525.2 +j  -1009.6     2719.6       0.9285
   TERMINAL TOTAL -7588.4 +j  -3036.0     8173.2       0.9284
3258     1      2523.5 +j   1009.4     2717.9       0.9285
3258     2      2540.8 +j   1019.1     2737.5       0.9281
3258     3      2525.7 +j   1010.7     2720.4       0.9284
   TERMINAL TOTAL  7590.0 +j   3039.2     8175.8       0.9283

ELEMENT = "Line.12465633_ID5631"
2645     1      2381.7 +j    881.1     2539.5       0.9379
2645     2      2472.2 +j    920.4     2637.9       0.9372
2645     3      2457.4 +j    913.4     2621.7       0.9373
   TERMINAL TOTAL  7311.3 +j   2714.9     7799.1       0.9375
2648     1     -2381.2 +j   -880.1     2538.7       0.9380
2648     2     -2471.6 +j   -919.4     2637.1       0.9373
2648     3     -2456.9 +j   -912.4     2620.8       0.9374
   TERMINAL TOTAL -7309.8 +j  -2711.8     7796.6       0.9376

ELEMENT = "Line.12465631_ID4574"
2221     1      1935.7 +j     41.3     1936.1       0.9998
2221     2      1980.5 +j     53.1     1981.2       0.9996
2221     3      1981.6 +j     52.9     1982.3       0.9996
   TERMINAL TOTAL  5897.8 +j    147.3     5899.6       0.9997
2223     1     -1935.4 +j    -40.7     1935.8       0.9998
2223     2     -1980.2 +j    -52.6     1980.9       0.9996
2223     3     -1981.3 +j    -52.3     1982.0       0.9997
   TERMINAL TOTAL -5896.9 +j   -145.6     5898.7       0.9997

ELEMENT = "Line.12465658_ID6119"
927      1      2511.9 +j    925.8     2677.1       0.9383
927      2      2278.9 +j    857.1     2434.8       0.9360
927      3      2281.7 +j    859.4     2438.2       0.9358
   TERMINAL TOTAL  7072.5 +j   2642.2     7550.0       0.9368
928      1     -2511.6 +j   -925.0     2676.5       0.9384
928      2     -2278.6 +j   -856.5     2434.3       0.9361
928      3     -2281.4 +j   -858.8     2437.6       0.9359
   TERMINAL TOTAL -7071.6 +j  -2640.3     7548.4       0.9368

ELEMENT = "Line.12465648_ID5895"
1972     1      1334.5 +j      5.9     1334.5       1.0000
1972     2      1268.2 +j      5.4     1268.2       1.0000
1972     3      1269.6 +j      5.6     1269.7       1.0000
   TERMINAL TOTAL  3872.3 +j     16.9     3872.3       1.0000
1973     1     -1334.4 +j     -5.7     1334.4       1.0000
1973     2     -1268.1 +j     -5.2     1268.1       1.0000
1973     3     -1269.6 +j     -5.4     1269.6       1.0000
   TERMINAL TOTAL -3872.0 +j    -16.3     3872.1       1.0000

ELEMENT = "Line.12465656_ID3277"
1100     1      2500.6 +j    985.0     2687.6       0.9304
1100     2      2383.1 +j    930.8     2558.4       0.9315
1100     3      2404.8 +j    942.9     2583.0       0.9310
   TERMINAL TOTAL  7288.5 +j   2858.7     7829.0       0.9310
1101     1     -2500.2 +j   -984.2     2687.0       0.9305
1101     2     -2382.8 +j   -930.1     2557.8       0.9315
1101     3     -2404.4 +j   -942.1     2582.4       0.9311
   TERMINAL TOTAL -7287.4 +j  -2856.4     7827.2       0.9310

ELEMENT = "Line.12465632_ID5323"
2924     1     -2522.4 +j  -1007.3     2716.1       0.9287
2924     2     -2539.7 +j  -1016.9     2735.7       0.9283
2924     3     -2524.6 +j  -1008.5     2718.6       0.9286
   TERMINAL TOTAL -7586.8 +j  -3032.7     8170.4       0.9286
2922     1      2523.0 +j   1008.4     2717.0       0.9286
2922     2      2540.2 +j   1018.0     2736.6       0.9282
2922     3      2525.2 +j   1009.6     2719.6       0.9285
   TERMINAL TOTAL  7588.4 +j   3036.0     8173.2       0.9284

ELEMENT = "Line.12465599_ID5632"
2647     1     -2379.5 +j   -876.6     2535.8       0.9384
2647     2     -2469.7 +j   -915.5     2634.0       0.9376
2647     3     -2455.0 +j   -908.6     2617.8       0.9378
   TERMINAL TOTAL -7304.2 +j  -2700.7     7787.5       0.9379
2648     1      2381.2 +j    880.1     2538.7       0.9380
2648     2      2471.6 +j    919.4     2637.1       0.9373
2648     3      2456.9 +j    912.4     2620.8       0.9374
   TERMINAL TOTAL  7309.8 +j   2711.8     7796.6       0.9376

ELEMENT = "Line.12465600_ID4575"
2222     1     -1934.4 +j    -38.7     1934.8       0.9998
2222     2     -1979.1 +j    -50.4     1979.7       0.9997
2222     3     -1980.2 +j    -50.1     1980.9       0.9997
   TERMINAL TOTAL -5893.7 +j   -139.1     5895.4       0.9997
2223     1      1935.4 +j     40.7     1935.8       0.9998
2223     2      1980.2 +j     52.6     1980.9       0.9996
2223     3      1981.3 +j     52.3     1982.0       0.9997
   TERMINAL TOTAL  5896.9 +j    145.6     5898.7       0.9997

ELEMENT = "Line.12465658_ID6120"
929      1     -2511.5 +j   -925.0     2676.4       0.9384
929      2     -2278.6 +j   -856.4     2434.2       0.9361
929      3     -2281.3 +j   -858.7     2437.6       0.9359
   TERMINAL TOTAL -7071.5 +j  -2640.1     7548.2       0.9368
928      1      2511.6 +j    925.0     2676.5       0.9384
928      2      2278.6 +j    856.5     2434.3       0.9361
928      3      2281.4 +j    858.8     2437.6       0.9359
   TERMINAL TOTAL  7071.6 +j   2640.3     7548.4       0.9368

ELEMENT = "Line.12465628_ID5896"
1973     1      1334.4 +j      5.7     1334.4       1.0000
1973     2      1268.1 +j      5.2     1268.1       1.0000
1973     3      1269.6 +j      5.4     1269.6       1.0000
   TERMINAL TOTAL  3872.0 +j     16.3     3872.1       1.0000
1975     1     -1334.2 +j     -5.4     1334.2       1.0000
1975     2     -1268.0 +j     -4.9     1268.0       1.0000
1975     3     -1269.4 +j     -5.2     1269.4       1.0000
   TERMINAL TOTAL -3871.7 +j    -15.6     3871.7       1.0000

ELEMENT = "Line.363435121_ID4971"
13       1      1183.8 +j    463.2     1271.2       0.9312
13       2      1246.3 +j    491.6     1339.7       0.9303
13       3      1223.1 +j    481.4     1314.5       0.9305
   TERMINAL TOTAL  3653.2 +j   1436.2     3925.4       0.9307
12       1     -1183.4 +j   -462.5     1270.6       0.9314
12       2     -1245.9 +j   -490.8     1339.1       0.9304
12       3     -1222.7 +j   -480.7     1313.8       0.9307
   TERMINAL TOTAL -3652.1 +j  -1434.0     3923.5       0.9308

ELEMENT = "Line.363435071_ID4099"
434      1     -2417.0 +j  -1037.5     2630.2       0.9189
434      2     -2517.0 +j  -1084.1     2740.5       0.9184
434      3     -2481.0 +j  -1068.2     2701.2       0.9185
   TERMINAL TOTAL -7414.9 +j  -3189.7     8071.9       0.9186
436      1      2418.5 +j   1040.5     2632.8       0.9186
436      2      2518.6 +j   1087.3     2743.3       0.9181
436      3      2482.6 +j   1071.3     2703.9       0.9182
   TERMINAL TOTAL  7419.6 +j   3199.1     8079.9       0.9183

ELEMENT = "Line.12465630_ID3278"
1101     1      2500.2 +j    984.2     2687.0       0.9305
1101     2      2382.8 +j    930.1     2557.8       0.9315
1101     3      2404.4 +j    942.1     2582.4       0.9311
   TERMINAL TOTAL  7287.4 +j   2856.4     7827.2       0.9310
1103     1     -2499.7 +j   -983.1     2686.1       0.9306
1103     2     -2382.3 +j   -929.1     2557.0       0.9317
1103     3     -2403.9 +j   -941.1     2581.6       0.9312
   TERMINAL TOTAL -7285.8 +j  -2853.3     7824.6       0.9311

ELEMENT = "Line.12465603_ID5324"
2923     1     -2520.4 +j  -1003.2     2712.7       0.9291
2923     2     -2537.6 +j  -1012.7     2732.2       0.9288
2923     3     -2522.6 +j  -1004.4     2715.2       0.9291
   TERMINAL TOTAL -7580.6 +j  -3020.3     8160.1       0.9290
2924     1      2522.4 +j   1007.3     2716.1       0.9287
2924     2      2539.7 +j   1016.9     2735.7       0.9283
2924     3      2524.6 +j   1008.5     2718.6       0.9286
   TERMINAL TOTAL  7586.8 +j   3032.7     8170.4       0.9286

ELEMENT = "Line.12465599_ID5633"
2646     1     -2379.1 +j   -875.8     2535.2       0.9384
2646     2     -2469.3 +j   -914.7     2633.3       0.9377
2646     3     -2454.6 +j   -907.8     2617.1       0.9379
   TERMINAL TOTAL -7303.0 +j  -2698.3     7785.6       0.9380
2647     1      2379.5 +j    876.6     2535.8       0.9384
2647     2      2469.7 +j    915.5     2634.0       0.9376
2647     3      2455.0 +j    908.6     2617.8       0.9378
   TERMINAL TOTAL  7304.2 +j   2700.7     7787.5       0.9379

ELEMENT = "Line.12465600_ID4576"
2222     1      1934.4 +j     38.7     1934.8       0.9998
2222     2      1979.1 +j     50.4     1979.7       0.9997
2222     3      1980.2 +j     50.1     1980.9       0.9997
   TERMINAL TOTAL  5893.7 +j    139.1     5895.4       0.9997
2227     1     -1934.3 +j    -38.5     1934.7       0.9998
2227     2     -1979.0 +j    -50.2     1979.6       0.9997
2227     3     -1980.1 +j    -49.9     1980.8       0.9997
   TERMINAL TOTAL -5893.4 +j   -138.5     5895.0       0.9997

ELEMENT = "Line.12465629_ID6121"
929      1      2511.5 +j    925.0     2676.4       0.9384
929      2      2278.6 +j    856.4     2434.2       0.9361
929      3      2281.3 +j    858.7     2437.6       0.9359
   TERMINAL TOTAL  7071.5 +j   2640.1     7548.2       0.9368
931      1     -2511.0 +j   -923.9     2675.6       0.9385
931      2     -2278.2 +j   -855.5     2433.5       0.9362
931      3     -2280.9 +j   -857.8     2436.9       0.9360
   TERMINAL TOTAL -7070.0 +j  -2637.2     7545.9       0.9369

ELEMENT = "Line.12465596_ID5897"
1975     1      1334.2 +j      5.4     1334.2       1.0000
1975     2      1268.0 +j      4.9     1268.0       1.0000
1975     3      1269.4 +j      5.2     1269.4       1.0000
   TERMINAL TOTAL  3871.7 +j     15.6     3871.7       1.0000
1974     1     -1333.7 +j     -4.4     1333.7       1.0000
1974     2     -1267.5 +j     -4.0     1267.5       1.0000
1974     3     -1269.0 +j     -4.3     1269.0       1.0000
   TERMINAL TOTAL -3870.2 +j    -12.7     3870.3       1.0000

ELEMENT = "Line.12465602_ID3279"
1102     1     -2497.6 +j   -979.1     2682.7       0.9310
1102     2     -2380.4 +j   -925.4     2554.0       0.9320
1102     3     -2402.0 +j   -937.4     2578.4       0.9316
   TERMINAL TOTAL -7280.1 +j  -2841.8     7815.1       0.9315
1103     1      2499.7 +j    983.1     2686.1       0.9306
1103     2      2382.3 +j    929.1     2557.0       0.9317
1103     3      2403.9 +j    941.1     2581.6       0.9312
   TERMINAL TOTAL  7285.8 +j   2853.3     7824.6       0.9311

ELEMENT = "Line.12465603_ID5325"
2923     1      2520.4 +j   1003.2     2712.7       0.9291
2923     2      2537.6 +j   1012.7     2732.2       0.9288
2923     3      2522.6 +j   1004.4     2715.2       0.9291
   TERMINAL TOTAL  7580.6 +j   3020.3     8160.1       0.9290
2926     1     -2520.1 +j  -1002.7     2712.3       0.9292
2926     2     -2537.3 +j  -1012.2     2731.8       0.9288
2926     3     -2522.3 +j  -1003.9     2714.8       0.9291
   TERMINAL TOTAL -7579.8 +j  -3018.7     8158.8       0.9290

ELEMENT = "Line.12465599_ID5634"
2649     1     -2378.6 +j   -874.8     2534.3       0.9385
2649     2     -2468.8 +j   -913.6     2632.4       0.9378
2649     3     -2454.1 +j   -906.7     2616.2       0.9380
   TERMINAL TOTAL -7301.4 +j  -2695.1     7782.9       0.9381
2646     1      2379.1 +j    875.8     2535.2       0.9384
2646     2      2469.3 +j    914.7     2633.3       0.9377
2646     3      2454.6 +j    907.8     2617.1       0.9379
   TERMINAL TOTAL  7303.0 +j   2698.3     7785.6       0.9380

ELEMENT = "Line.12465589_ID4577"
2226     1     -1933.1 +j    -36.1     1933.4       0.9998
2226     2     -1977.7 +j    -47.7     1978.3       0.9997
2226     3     -1978.9 +j    -47.4     1979.5       0.9997
   TERMINAL TOTAL -5889.7 +j   -131.1     5891.1       0.9998
2227     1      1934.3 +j     38.5     1934.7       0.9998
2227     2      1979.0 +j     50.2     1979.6       0.9997
2227     3      1980.1 +j     49.9     1980.8       0.9997
   TERMINAL TOTAL  5893.4 +j    138.5     5895.0       0.9997

ELEMENT = "Line.12465598_ID6122"
930      1     -2509.0 +j   -919.9     2672.3       0.9389
930      2     -2276.5 +j   -852.2     2430.8       0.9365
930      3     -2279.2 +j   -854.5     2434.2       0.9364
   TERMINAL TOTAL -7064.7 +j  -2626.6     7537.2       0.9373
931      1      2511.0 +j    923.9     2675.6       0.9385
931      2      2278.2 +j    855.5     2433.5       0.9362
931      3      2280.9 +j    857.8     2436.9       0.9360
   TERMINAL TOTAL  7070.0 +j   2637.2     7545.9       0.9369

ELEMENT = "Line.12465596_ID5898"
1974     1      1333.7 +j      4.4     1333.7       1.0000
1974     2      1267.5 +j      4.0     1267.5       1.0000
1974     3      1269.0 +j      4.3     1269.0       1.0000
   TERMINAL TOTAL  3870.2 +j     12.7     3870.3       1.0000
1978     1     -1333.7 +j     -4.3     1333.7       1.0000
1978     2     -1267.5 +j     -4.0     1267.5       1.0000
1978     3     -1268.9 +j     -4.2     1269.0       1.0000
   TERMINAL TOTAL -3870.1 +j    -12.5     3870.2       1.0000

ELEMENT = "Line.363435153_ID4972"
12       1      1183.4 +j    462.5     1270.6       0.9314
12       2      1245.9 +j    490.8     1339.1       0.9304
12       3      1222.7 +j    480.7     1313.8       0.9307
   TERMINAL TOTAL  3652.1 +j   1434.0     3923.5       0.9308
9        1     -1183.1 +j   -461.8     1270.0       0.9315
9        2     -1245.5 +j   -490.0     1338.4       0.9306
9        3     -1222.4 +j   -480.0     1313.2       0.9308
   TERMINAL TOTAL -3651.0 +j  -1431.8     3921.7       0.9310

ELEMENT = "Line.363435303_ID4100"
432      1     -2415.5 +j  -1034.5     2627.7       0.9192
432      2     -2515.3 +j  -1080.8     2737.7       0.9188
432      3     -2479.4 +j  -1065.0     2698.5       0.9188
   TERMINAL TOTAL -7410.2 +j  -3180.4     8063.9       0.9189
434      1      2417.0 +j   1037.5     2630.2       0.9189
434      2      2517.0 +j   1084.1     2740.5       0.9184
434      3      2481.0 +j   1068.2     2701.2       0.9185
   TERMINAL TOTAL  7414.9 +j   3189.7     8071.9       0.9186

ELEMENT = "Line.12465602_ID3280"
1102     1      2497.6 +j    979.1     2682.7       0.9310
1102     2      2380.4 +j    925.4     2554.0       0.9320
1102     3      2402.0 +j    937.4     2578.4       0.9316
   TERMINAL TOTAL  7280.1 +j   2841.8     7815.1       0.9315
1106     1     -2497.2 +j   -978.3     2682.0       0.9311
1106     2     -2380.0 +j   -924.6     2553.3       0.9321
1106     3     -2401.6 +j   -936.6     2577.8       0.9317
   TERMINAL TOTAL -7278.9 +j  -2839.5     7813.2       0.9316

ELEMENT = "Line.12465588_ID5326"
2925     1     -2519.2 +j  -1000.8     2710.7       0.9293
2925     2     -2536.4 +j  -1010.3     2730.2       0.9290
2925     3     -2521.4 +j  -1002.0     2713.2       0.9293
   TERMINAL TOTAL -7577.0 +j  -3013.1     8154.1       0.9292
2926     1      2520.1 +j   1002.7     2712.3       0.9292
2926     2      2537.3 +j   1012.2     2731.8       0.9288
2926     3      2522.3 +j   1003.9     2714.8       0.9291
   TERMINAL TOTAL  7579.8 +j   3018.7     8158.8       0.9290

ELEMENT = "Line.12465584_ID5635"
2649     1      2378.6 +j    874.8     2534.3       0.9385
2649     2      2468.8 +j    913.6     2632.4       0.9378
2649     3      2454.1 +j    906.7     2616.2       0.9380
   TERMINAL TOTAL  7301.4 +j   2695.1     7782.9       0.9381
2835     1     -2378.5 +j   -874.7     2534.3       0.9385
2835     2     -2468.7 +j   -913.6     2632.3       0.9378
2835     3     -2454.0 +j   -906.7     2616.2       0.9380
   TERMINAL TOTAL -7301.3 +j  -2694.9     7782.8       0.9381

ELEMENT = "Line.12465589_ID4578"
2225     1     -1931.7 +j    -33.3     1932.0       0.9999
2225     2     -1976.3 +j    -44.7     1976.8       0.9997
2225     3     -1977.4 +j    -44.5     1977.9       0.9997
   TERMINAL TOTAL -5885.4 +j   -122.5     5886.7       0.9998
2226     1      1933.1 +j     36.1     1933.4       0.9998
2226     2      1977.7 +j     47.7     1978.3       0.9997
2226     3      1978.9 +j     47.4     1979.5       0.9997
   TERMINAL TOTAL  5889.7 +j    131.1     5891.1       0.9998

ELEMENT = "Line.12465598_ID6123"
930      1      2509.0 +j    919.9     2672.3       0.9389
930      2      2276.5 +j    852.2     2430.8       0.9365
930      3      2279.2 +j    854.5     2434.2       0.9364
   TERMINAL TOTAL  7064.7 +j   2626.6     7537.2       0.9373
934      1     -2508.6 +j   -919.2     2671.7       0.9390
934      2     -2276.2 +j   -851.6     2430.3       0.9366
934      3     -2278.9 +j   -853.9     2433.6       0.9364
   TERMINAL TOTAL -7063.8 +j  -2624.7     7535.6       0.9374

ELEMENT = "Line.12465587_ID5899"
1977     1     -1333.1 +j     -3.2     1333.1       1.0000
1977     2     -1267.0 +j     -2.9     1267.0       1.0000
1977     3     -1268.4 +j     -3.2     1268.4       1.0000
   TERMINAL TOTAL -3868.5 +j     -9.3     3868.5       1.0000
1978     1      1333.7 +j      4.3     1333.7       1.0000
1978     2      1267.5 +j      4.0     1267.5       1.0000
1978     3      1268.9 +j      4.2     1269.0       1.0000
   TERMINAL TOTAL  3870.1 +j     12.5     3870.2       1.0000

ELEMENT = "Line.12465590_ID3281"
1105     1     -2494.8 +j   -973.5     2678.0       0.9316
1105     2     -2377.9 +j   -920.3     2549.8       0.9326
1105     3     -2399.4 +j   -932.2     2574.2       0.9321
   TERMINAL TOTAL -7272.2 +j  -2826.0     7802.0       0.9321
1106     1      2497.2 +j    978.3     2682.0       0.9311
1106     2      2380.0 +j    924.6     2553.3       0.9321
1106     3      2401.6 +j    936.6     2577.8       0.9317
   TERMINAL TOTAL  7278.9 +j   2839.5     7813.2       0.9316

ELEMENT = "Line.12465638_ID5327"
2925     1      2519.2 +j   1000.8     2710.7       0.9293
2925     2      2536.4 +j   1010.3     2730.2       0.9290
2925     3      2521.4 +j   1002.0     2713.2       0.9293
   TERMINAL TOTAL  7577.0 +j   3013.1     8154.1       0.9292
3029     1     -2519.2 +j  -1000.8     2710.7       0.9294
3029     2     -2536.3 +j  -1010.3     2730.1       0.9290
3029     3     -2521.4 +j  -1002.0     2713.2       0.9293
   TERMINAL TOTAL -7576.9 +j  -3013.0     8154.0       0.9292

ELEMENT = "Line.12465589_ID4579"
2224     1     -1931.2 +j    -32.3     1931.5       0.9999
2224     2     -1975.8 +j    -43.7     1976.2       0.9998
2224     3     -1976.9 +j    -43.4     1977.4       0.9998
   TERMINAL TOTAL -5883.9 +j   -119.4     5885.1       0.9998
2225     1      1931.7 +j     33.3     1932.0       0.9999
2225     2      1976.3 +j     44.7     1976.8       0.9997
2225     3      1977.4 +j     44.5     1977.9       0.9997
   TERMINAL TOTAL  5885.4 +j    122.5     5886.7       0.9998

ELEMENT = "Line.12465597_ID6124"
934      1      2508.6 +j    919.2     2671.7       0.9390
934      2      2276.2 +j    851.6     2430.3       0.9366
934      3      2278.9 +j    853.9     2433.6       0.9364
   TERMINAL TOTAL  7063.8 +j   2624.7     7535.6       0.9374
933      1     -2506.2 +j   -914.3     2667.8       0.9394
933      2     -2274.2 +j   -847.6     2427.0       0.9370
933      3     -2276.9 +j   -849.9     2430.4       0.9369
   TERMINAL TOTAL -7057.3 +j  -2611.8     7525.1       0.9378

ELEMENT = "Line.12465587_ID5900"
1976     1     -1332.4 +j     -1.8     1332.4       1.0000
1976     2     -1266.4 +j     -1.7     1266.4       1.0000
1976     3     -1267.8 +j     -2.0     1267.8       1.0000
   TERMINAL TOTAL -3866.6 +j     -5.5     3866.6       1.0000
1977     1      1333.1 +j      3.2     1333.1       1.0000
1977     2      1267.0 +j      2.9     1267.0       1.0000
1977     3      1268.4 +j      3.2     1268.4       1.0000
   TERMINAL TOTAL  3868.5 +j      9.3     3868.5       1.0000

ELEMENT = "Line.363435319_ID4973"
9        1      1183.1 +j    461.8     1270.0       0.9315
9        2      1245.5 +j    490.0     1338.4       0.9306
9        3      1222.4 +j    480.0     1313.2       0.9308
   TERMINAL TOTAL  3651.0 +j   1431.8     3921.7       0.9310
7        1     -1182.6 +j   -460.8     1269.1       0.9318
7        2     -1244.9 +j   -488.8     1337.4       0.9308
7        3     -1221.8 +j   -478.8     1312.3       0.9311
   TERMINAL TOTAL -3649.3 +j  -1428.4     3918.9       0.9312

ELEMENT = "Line.363438448_ID4101"
432      1      2415.5 +j   1034.5     2627.7       0.9192
432      2      2515.3 +j   1080.8     2737.7       0.9188
432      3      2479.4 +j   1065.0     2698.5       0.9188
   TERMINAL TOTAL  7410.2 +j   3180.4     8063.9       0.9189
431      1     -2413.2 +j  -1029.9     2623.7       0.9197
431      2     -2512.8 +j  -1075.8     2733.5       0.9193
431      3     -2477.0 +j  -1060.2     2694.4       0.9193
   TERMINAL TOTAL -7403.0 +j  -3165.9     8051.6       0.9195

ELEMENT = "Line.12465590_ID3282"
1105     1      2494.8 +j    973.5     2678.0       0.9316
1105     2      2377.9 +j    920.3     2549.8       0.9326
1105     3      2399.4 +j    932.2     2574.2       0.9321
   TERMINAL TOTAL  7272.2 +j   2826.0     7802.0       0.9321
1104     1     -2492.1 +j   -968.0     2673.5       0.9321
1104     2     -2375.4 +j   -915.4     2545.7       0.9331
1104     3     -2396.9 +j   -927.2     2570.0       0.9327
   TERMINAL TOTAL -7264.4 +j  -2810.5     7789.2       0.9326

ELEMENT = "Line.5674994_ID5636"
2833     1     -2378.5 +j   -874.7     2534.2       0.9386
2833     2     -2468.7 +j   -913.5     2632.3       0.9379
2833     3     -2454.0 +j   -906.6     2616.1       0.9380
2833     4        -0.0 +j      0.0        0.0      -0.0021
   TERMINAL TOTAL -7301.2 +j  -2694.8     7782.7       0.9381
2835     1      2378.5 +j    874.7     2534.3       0.9385
2835     2      2468.7 +j    913.6     2632.3       0.9378
2835     3      2454.0 +j    906.7     2616.2       0.9380
2835     4         0.0 +j     -0.0        0.0      -0.5912
   TERMINAL TOTAL  7301.3 +j   2694.9     7782.8       0.9381

ELEMENT = "Line.12465589_ID4580"
2228     1     -1930.6 +j    -31.0     1930.8       0.9999
2228     2     -1975.1 +j    -42.4     1975.6       0.9998
2228     3     -1976.3 +j    -42.1     1976.7       0.9998
   TERMINAL TOTAL -5881.9 +j   -115.5     5883.0       0.9998
2224     1      1931.2 +j     32.3     1931.5       0.9999
2224     2      1975.8 +j     43.7     1976.2       0.9998
2224     3      1976.9 +j     43.4     1977.4       0.9998
   TERMINAL TOTAL  5883.9 +j    119.4     5885.1       0.9998

ELEMENT = "Line.12465597_ID6125"
933      1      2506.2 +j    914.3     2667.8       0.9394
933      2      2274.2 +j    847.6     2427.0       0.9370
933      3      2276.9 +j    849.9     2430.4       0.9369
   TERMINAL TOTAL  7057.3 +j   2611.8     7525.1       0.9378
932      1     -2503.5 +j   -908.9     2663.4       0.9400
932      2     -2271.9 +j   -843.1     2423.3       0.9375
932      3     -2274.7 +j   -845.4     2426.7       0.9374
   TERMINAL TOTAL -7050.1 +j  -2597.4     7513.4       0.9383

ELEMENT = "Line.12465587_ID5901"
1976     1      1332.4 +j      1.8     1332.4       1.0000
1976     2      1266.4 +j      1.7     1266.4       1.0000
1976     3      1267.8 +j      2.0     1267.8       1.0000
   TERMINAL TOTAL  3866.6 +j      5.5     3866.6       1.0000
1980     1     -1332.2 +j     -1.4     1332.2       1.0000
1980     2     -1266.2 +j     -1.3     1266.2       1.0000
1980     3     -1267.6 +j     -1.5     1267.6       1.0000
   TERMINAL TOTAL -3866.0 +j     -4.2     3866.0       1.0000

ELEMENT = "Line.12465590_ID3283"
1104     1      2492.1 +j    968.0     2673.5       0.9321
1104     2      2375.4 +j    915.4     2545.7       0.9331
1104     3      2396.9 +j    927.2     2570.0       0.9327
   TERMINAL TOTAL  7264.4 +j   2810.5     7789.2       0.9326
1108     1     -2491.2 +j   -966.1     2671.9       0.9323
1108     2     -2374.5 +j   -913.6     2544.2       0.9333
1108     3     -2396.0 +j   -925.4     2568.5       0.9328
   TERMINAL TOTAL -7261.7 +j  -2805.1     7784.7       0.9328

ELEMENT = "Line.5675532_ID5328"
3029     1      2519.2 +j   1000.8     2710.7       0.9294
3029     2      2536.3 +j   1010.3     2730.1       0.9290
3029     3      2521.4 +j   1002.0     2713.2       0.9293
3029     4         0.0 +j     -0.0        0.0      -0.9986
   TERMINAL TOTAL  7576.9 +j   3013.0     8154.0       0.9292
3034     1     -2519.1 +j  -1000.7     2710.6       0.9294
3034     2     -2536.3 +j  -1010.2     2730.1       0.9290
3034     3     -2521.3 +j  -1001.9     2713.1       0.9293
3034     4        -0.0 +j      0.0        0.0      -0.5293
   TERMINAL TOTAL -7576.8 +j  -3012.8     8153.8       0.9292

ELEMENT = "Line.5675005_ID5637"
2832     1     -2378.3 +j   -874.3     2533.9       0.9386
2832     2     -2468.5 +j   -913.1     2631.9       0.9379
2832     3     -2453.8 +j   -906.2     2615.8       0.9381
   TERMINAL TOTAL -7300.6 +j  -2693.5     7781.6       0.9382
2833     1      2378.5 +j    874.7     2534.2       0.9386
2833     2      2468.7 +j    913.5     2632.3       0.9379
2833     3      2454.0 +j    906.6     2616.1       0.9380
   TERMINAL TOTAL  7301.2 +j   2694.8     7782.7       0.9381

ELEMENT = "Line.5675006_ID5638"
2823     1        -0.0 +j     -0.0        0.0       0.1387
2823     2         0.0 +j     -0.0        0.0      -0.0651
2823     3         0.0 +j      0.0        0.0       0.7217
2823     4         0.0 +j     -0.0        0.0      -0.9423
   TERMINAL TOTAL     0.0 +j     -0.0        0.0      -0.6562
2833     1         0.0 +j      0.0        0.0       0.4426
2833     2         0.0 +j      0.0        0.0       0.1163
2833     3        -0.0 +j     -0.0        0.0       0.8861
2833     4        -0.0 +j     -0.0        0.0       0.9985
   TERMINAL TOTAL     0.0 +j      0.0        0.0       0.1217

ELEMENT = "Line.12460924_ID4581"
2228     1      1930.6 +j     31.0     1930.8       0.9999
2228     2      1975.1 +j     42.4     1975.6       0.9998
2228     3      1976.3 +j     42.1     1976.7       0.9998
   TERMINAL TOTAL  5881.9 +j    115.5     5883.0       0.9998
...