api/Rede_CAI_teste_sem_trafos_Ajustada_VLL.Txt

SYMMETRICAL COMPONENT PHASE-PHASE VOLTAGES BY BUS (for 3-phase buses)

Bus   Mag:   V1 (kV)    p.u.     V2 (kV)   %V2/V1    V0 (kV)    %V0/V1

3259     50.84     0.5777    0.00793     0.0156 9.095E-015 1.789E-014
2645     7.943     0.5756   0.002561    0.03224 1.017E-015 1.28E-014
3256     7.946     0.5758    0.00252    0.03171 1.137E-015 1.431E-014
2221     7.945     0.5757   0.002546    0.03205 1.224E-015 1.541E-014
3257     3.961      0.287  0.0007012     0.0177 6.821E-016 1.722E-014
927      3.927     0.2846  0.0006953     0.0177 5.684E-016 1.447E-014
1972      3.96      0.287  0.0007007    0.01769 5.116E-016 1.292E-014
13        3.96      0.287  0.0007144    0.01804 5.084E-016 1.284E-014
436       3.96     0.2869  0.0007205     0.0182 6.253E-016 1.579E-014
1100      3.96      0.287  0.0006847    0.01729 6.253E-016 1.579E-014
2922     7.935      0.575   0.001555     0.0196 1.137E-015 1.433E-014
3258     7.938     0.5752   0.001542    0.01942 1.224E-015 1.543E-014
2648     7.941     0.5754   0.002591    0.03262 1.137E-015 1.432E-014
2223     7.944     0.5757   0.002566    0.03229 1.137E-015 1.431E-014
928      3.815     0.2765  0.0006755     0.0177 5.116E-016 1.341E-014
1973      3.96      0.287  0.0007002    0.01768 5.116E-016 1.292E-014
1101     3.959     0.2869  0.0006662    0.01683 6.253E-016 1.579E-014
2924     7.932     0.5748    0.00157    0.01979 1.224E-015 1.544E-014
2647     7.933     0.5748   0.002699    0.03402 1.017E-015 1.282E-014
2222     7.941     0.5754   0.002637    0.03321 1.224E-015 1.542E-014
929      3.806     0.2758  0.0006738     0.0177 7.39E-016 1.942E-014
1975      3.96      0.287  0.0006997    0.01767 6.253E-016 1.579E-014
12       3.959     0.2869  0.0007512    0.01898 7.958E-016 2.01E-014
434      3.957     0.2867  0.0007745    0.01957 8.824E-016 2.23E-014
1103     3.958     0.2868  0.0006401    0.01617 6.653E-016 1.681E-014
2923     7.923     0.5741   0.001623    0.02049 1.364E-015 1.722E-014
2646     7.931     0.5747   0.002723    0.03433 1.224E-015 1.544E-014
2227     7.941     0.5754   0.002644     0.0333 1.364E-015 1.718E-014
931      3.641     0.2639  0.0006447     0.0177 5.598E-016 1.537E-014
1974     3.959     0.2869  0.0006991    0.01766 5.116E-016 1.292E-014
1102     3.955     0.2866   0.000545    0.01378 6.253E-016 1.581E-014
2926     7.921      0.574    0.00163    0.02058 6.821E-016 8.611E-015
2649     7.929     0.5745   0.002755    0.03474 1.137E-015 1.434E-014
2226     7.937     0.5751   0.002727    0.03435 1.224E-015 1.543E-014
930      3.041     0.2204  0.0005384     0.0177 6.076E-016 1.998E-014
1978     3.959     0.2869  0.0006992    0.01766 6.253E-016 1.579E-014
9        3.957     0.2868   0.000788    0.01991 6.253E-016 1.58E-014
432      3.954     0.2865  0.0008286    0.02096 7.39E-016 1.869E-014
1106     3.954     0.2865  0.0005261    0.01331 4.583E-016 1.159E-014
2925     7.917     0.5737   0.001654    0.02089 1.655E-015 2.091E-014
2835     7.928     0.5745   0.002756    0.03476 9.095E-016 1.147E-014
2225     7.932     0.5748   0.002822    0.03558 1.438E-015 1.813E-014
934      2.929     0.2122  0.0005185     0.0177 3.866E-016 1.32E-014
1977     3.958     0.2868  0.0007016    0.01773 4.583E-016 1.158E-014
1105      3.95     0.2862  0.0004186     0.0106 6.821E-016 1.727E-014
3029     7.917     0.5737   0.001655     0.0209 1.655E-015 2.091E-014
2224      7.93     0.5747   0.002857    0.03602 9.095E-016 1.147E-014
933        2.2     0.1594  0.0003894     0.0177 4.687E-016 2.131E-014
1976     3.957     0.2867  0.0007083     0.0179 4.583E-016 1.158E-014
7        3.955     0.2866  0.0008446    0.02135 6.821E-016 1.725E-014
431       3.95     0.2862   0.000912    0.02309 6.122E-016 1.55E-014
1104     3.945     0.2859  0.0003056   0.007747 6.253E-016 1.585E-014
2833     7.928     0.5745   0.002757    0.03478 1.364E-015 1.721E-014
2228     7.928     0.5745     0.0029    0.03658 1.592E-015 2.007E-014
932      1.381     0.1001  0.0002444     0.0177 2.206E-016 1.598E-014
1980     3.957     0.2867  0.0007117    0.01799 6.253E-016 1.58E-014
1108     3.943     0.2857   0.000271   0.006872 7.39E-016 1.874E-014
3034     7.917     0.5737   0.001655    0.02091 1.224E-015 1.547E-014
2832     7.927     0.5745    0.00277    0.03494 1.137E-015 1.434E-014
2823     7.928     0.5745   0.002757    0.03478 6.821E-016 8.604E-015
2285     7.928     0.5745   0.002902     0.0366 1.017E-015 1.283E-014
936      1.094    0.07926  0.0001936     0.0177 1.99E-016 1.819E-014
1979     3.956     0.2866  0.0007206    0.01822 6.122E-016 1.548E-014
5        3.953     0.2864  0.0009086    0.02299 7.958E-016 2.013E-014
428      3.945     0.2859   0.001007    0.02551 6.253E-016 1.585E-014
1107     3.939     0.2855  0.0002135   0.005419 4.547E-016 1.154E-014
3033     7.917     0.5737   0.001655    0.02091 9.095E-016 1.149E-014
3031     7.915     0.5736   0.001665    0.02103 1.137E-015 1.436E-014
2831     7.926     0.5744   0.002788    0.03518 1.364E-015 1.721E-014
935     0.4746    0.03439  8.398E-005     0.0177 7.105E-017 1.497E-014
1981     3.955     0.2866  0.0007273    0.01839 4.547E-016 1.15E-014
4        3.952     0.2864  0.0009312    0.02356 6.653E-016 1.684E-014
425      3.943     0.2857    0.00104    0.02637 5.598E-016 1.42E-014
1109     3.937     0.2853  0.0001977   0.005021 6.653E-016 1.69E-014
3032     7.917     0.5737   0.001655    0.02091 9.095E-016 1.149E-014
3017     7.915     0.5736   0.001665    0.02103 1.137E-015 1.436E-014
3016     7.915     0.5736   0.001665    0.02104 1.137E-015 1.436E-014
2830     7.925     0.5743   0.002805     0.0354 1.224E-015 1.545E-014
2292     7.928     0.5745   0.002903    0.03661 1.137E-015 1.434E-014
938     0.2033    0.01473  3.595E-005    0.01768 2.788E-017 1.371E-014
1998     3.955     0.2866  0.0007275    0.01839 5.684E-016 1.437E-014
1160     3.937     0.2853  0.0001975   0.005018 6.122E-016 1.555E-014
3015     7.913     0.5734   0.001676    0.02118 9.095E-016 1.149E-014
2829     7.922     0.5741   0.002837    0.03581 1.137E-015 1.435E-014
2291     7.928     0.5745   0.002912    0.03673 1.017E-015 1.283E-014
2286     7.928     0.5745   0.002903    0.03661 1.137E-015 1.434E-014
1016    0.1932      0.014  3.416E-005    0.01768 3.418E-017 1.769E-014
14       3.951     0.2863  0.0009563     0.0242 7.39E-016 1.87E-014
426      3.941     0.2856   0.001082    0.02744 5.598E-016 1.421E-014
3014     7.911     0.5733   0.001687    0.02133 1.438E-015 1.818E-014
3013     7.913     0.5734   0.001676    0.02118 1.438E-015 1.817E-014
2828     7.921      0.574   0.002856    0.03606 1.655E-015 2.09E-014
2290     7.926     0.5744   0.002949    0.03721 1.137E-015 1.434E-014
2283     7.928     0.5745   0.002903    0.03661 1.364E-015 1.721E-014
2282     7.928     0.5745   0.002903    0.03661 1.017E-015 1.283E-014
2000     3.955     0.2866  0.0007276     0.0184 5.116E-016 1.294E-014
1158     3.937     0.2853  0.0001974   0.005013 6.253E-016 1.588E-014
3011     7.911     0.5733   0.001687    0.02133 1.137E-015 1.437E-014
3009     7.911     0.5732    0.00169    0.02136 1.224E-015 1.548E-014
3012     7.913     0.5734   0.001676    0.02118 1.137E-015 1.437E-014
2827      7.92     0.5739   0.002869    0.03622 1.364E-015 1.722E-014
2294     7.925     0.5743   0.002965    0.03742 1.364E-015 1.721E-014
1014    0.1857    0.01346  3.284E-005    0.01768 2.247E-017 1.21E-014
1999     3.955     0.2866  0.0007276     0.0184 4.547E-016 1.15E-014
2003     3.955     0.2866   0.000729    0.01843 7.19E-016 1.818E-014
40       3.951     0.2863  0.0009567    0.02421 6.653E-016 1.684E-014
30       3.951     0.2863  0.0009563     0.0242 5.116E-016 1.295E-014
572       3.94     0.2855   0.001096    0.02782 5.684E-016 1.443E-014
540      3.941     0.2856   0.001082    0.02744 5.684E-016 1.442E-014
1157     3.937     0.2853  0.0001974   0.005013 6.253E-016 1.588E-014
1162     3.937     0.2853  0.0001969   0.005001 6.821E-016 1.733E-014
3010     7.911     0.5733   0.001687    0.02133 1.438E-015 1.818E-014
3008      7.91     0.5732   0.001697    0.02146 1.137E-015 1.437E-014
2826     7.919     0.5739   0.002881    0.03638 1.438E-015 1.816E-014
2293     7.925     0.5743   0.002965    0.03742 1.655E-015 2.089E-014
2289     7.924     0.5742   0.002989    0.03771 1.137E-015 1.435E-014
1013   0.03462   0.002509  6.056E-006    0.01749 3.662E-018 1.058E-014
1010    0.1857    0.01346  3.284E-005    0.01768 2.832E-017 1.525E-014
2005     3.955     0.2866  0.0007297    0.01845 3.979E-016 1.006E-014
39       3.951     0.2863  0.0009601     0.0243 5.116E-016 1.295E-014
31       3.951     0.2863  0.0009563     0.0242 6.653E-016 1.684E-014
580       3.94     0.2855    0.00111    0.02818 6.253E-016 1.587E-014
539      3.941     0.2856   0.001082    0.02744 4.547E-016 1.154E-014
1156     3.937     0.2853  0.0001974   0.005013 7.19E-016 1.826E-014
1161     3.937     0.2853  0.0001969   0.005001 6.253E-016 1.588E-014
1155     3.935     0.2852  0.0001982   0.005037 5.116E-016  1.3E-014
2999     7.911     0.5733   0.001687    0.02133 1.137E-015 1.437E-014
2825     7.918     0.5738   0.002898     0.0366 1.017E-015 1.284E-014
2288     7.923     0.5741   0.003021    0.03813 9.095E-016 1.148E-014
1012   0.03461   0.002508   5.6E-006    0.01618 3.972E-018 1.148E-014
1009  0.001759  0.0001275  3.076E-007    0.01749 2.483E-019 1.411E-014
2004     3.955     0.2866  0.0007297    0.01845 6.253E-016 1.581E-014
2002     3.955     0.2866  0.0007319    0.01851 7.39E-016 1.869E-014
38       3.951     0.2863  0.0009625    0.02436 6.253E-016 1.583E-014
32       3.951     0.2863  0.0009563     0.0242 4.583E-016 1.16E-014
579      3.939     0.2854   0.001129    0.02866 6.253E-016 1.588E-014
538      3.941     0.2856   0.001082    0.02744 5.116E-016 1.298E-014
1170     3.934     0.2851   0.000205   0.005209 7.39E-016 1.878E-014
2998     7.911     0.5733   0.001687    0.02133 1.364E-015 1.724E-014
3004     7.908      0.573   0.001709    0.02162 1.438E-015 1.819E-014
2824     7.917     0.5737   0.002913     0.0368 9.095E-016 1.149E-014
2296     7.922      0.574   0.003046    0.03845 1.364E-015 1.722E-014
1011    0.0346   0.002508  5.124E-006    0.01481 3.202E-018 9.254E-015
2007     3.955     0.2866  0.0007344    0.01857 7.19E-016 1.818E-014
37       3.951     0.2863  0.0009629    0.02437 5.084E-016 1.287E-014
33       3.951     0.2863  0.0009563     0.0242 5.116E-016 1.295E-014
618      3.939     0.2854   0.001129    0.02867 6.253E-016 1.588E-014
1169     3.934     0.2851   0.000205   0.005209 5.684E-016 1.445E-014
1167     3.934     0.2851  0.0002056   0.005225 5.598E-016 1.423E-014
2997     7.911     0.5733   0.001687    0.02133 1.137E-015 1.437E-014
3003     7.905     0.5728   0.001723     0.0218 1.137E-015 1.438E-014
2805     7.916     0.5736   0.002927    0.03698 1.592E-015 2.011E-014
2295     7.922      0.574   0.003046    0.03845 1.137E-015 1.435E-014
2287     7.921      0.574    0.00307    0.03876 9.095E-016 1.148E-014
1008    0.0346   0.002507  4.807E-006    0.01389 4.441E-018 1.284E-014
2006     3.955     0.2866  0.0007344    0.01857 6.122E-016 1.548E-014
2009     3.954     0.2866  0.0007362    0.01862 5.116E-016 1.294E-014
36        3.95     0.2863  0.0009698    0.02455 6.653E-016 1.684E-014
617      3.939     0.2854   0.001129    0.02867 3.979E-016 1.01E-014
571      3.938     0.2854   0.001139    0.02892 6.253E-016 1.588E-014
2996     7.911     0.5733   0.001687    0.02132 1.137E-015 1.437E-014
3002     7.903     0.5727   0.001739    0.02201 1.364E-015 1.726E-014
2989     7.905     0.5728   0.001723     0.0218 1.137E-015 1.438E-014
2806     7.915     0.5735   0.002942    0.03716 8.198E-016 1.036E-014
2302      7.92     0.5739   0.003091    0.03903 9.095E-016 1.148E-014
1007   0.03459   0.002506  4.829E-006    0.01396 3.662E-018 1.059E-014
1006    0.0346   0.002507  4.637E-006     0.0134 4.441E-018 1.284E-014
2008     3.954     0.2866  0.0007362    0.01862 5.116E-016 1.294E-014
2011     3.954     0.2865  0.0007369    0.01863 6.653E-016 1.683E-014
35        3.95     0.2862  0.0009766    0.02472 5.598E-016 1.417E-014
616      3.939     0.2854   0.001129    0.02867 5.684E-016 1.443E-014
570      3.937     0.2853   0.001157    0.02938 5.684E-016 1.444E-014
1110     3.934     0.2851   0.000205   0.005209 6.653E-016 1.691E-014
1112     3.934     0.2851  0.0002075   0.005274 3.979E-016 1.011E-014
2958     7.911     0.5733   0.001687    0.02132 1.017E-015 1.285E-014
2982     7.901     0.5726   0.001754     0.0222 1.137E-015 1.439E-014
2804     7.914     0.5735    0.00295    0.03727 1.592E-015 2.011E-014
2301      7.92     0.5739   0.003092    0.03904 1.137E-015 1.436E-014
2299      7.92     0.5739   0.003091    0.03903 1.438E-015 1.816E-014
992    0.03458   0.002506  4.829E-006    0.01396 3.972E-018 1.149E-014
950    0.03459   0.002506  4.834E-006    0.01398 3.972E-018 1.148E-014
1002    0.0346   0.002507  4.637E-006     0.0134 4.441E-018 1.284E-014
2010     3.954     0.2865   0.000738    0.01866 5.598E-016 1.416E-014
2001     3.954     0.2865  0.0007369    0.01863 4.547E-016 1.15E-014
34        3.95     0.2862  0.0009868    0.02498 6.653E-016 1.684E-014
559      3.936     0.2852   0.001171    0.02976 5.116E-016  1.3E-014
1113     3.934     0.2851   0.000205   0.005209 4.547E-016 1.156E-014
1111     3.933      0.285  0.0002156   0.005483 5.598E-016 1.423E-014
2954     7.911     0.5733   0.001687    0.02132 1.438E-015 1.818E-014
2808     7.914     0.5735   0.002956    0.03735 1.364E-015 1.724E-014
2298      7.92     0.5739   0.003091    0.03903 1.137E-015 1.435E-014
994    0.03459   0.002506  4.85E-006    0.01402 4.441E-018 1.284E-014
998     0.0346   0.002507  4.637E-006     0.0134 4.441E-018 1.284E-014
1004    0.0346   0.002507  4.623E-006    0.01336 1.986E-018 5.741E-015
2016     3.954     0.2865  0.0007369    0.01864 6.253E-016 1.581E-014
60       3.949     0.2862      0.001    0.02533 6.253E-016 1.583E-014
569      3.936     0.2852    0.00119    0.03023 5.598E-016 1.423E-014
1114     3.934     0.2851   0.000205   0.005209 5.598E-016 1.423E-014
1115     3.932     0.2849  0.0002318   0.005896 5.116E-016 1.301E-014
2944     7.911     0.5732   0.001687    0.02132 9.095E-016 1.15E-014
...
